C93814-P97
     RDKit          3D

 46 47  0  0  0  0  0  0  0  0999 V2000
    8.9011   -8.5458   25.3768 C   0  0  0  0  0  0  0  0  0  0  0  0
    8.4854   -9.9801   25.6820 C   0  0  0  0  0  0  0  0  0  0  0  0
    7.1144  -10.1184   26.4256 C   0  0  0  0  0  0  0  0  0  0  0  0
    6.7775  -11.5898   26.8098 C   0  0  0  0  0  0  0  0  0  0  0  0
    7.6619  -12.4063   26.7731 O   0  0  0  0  0  0  0  0  0  0  0  0
    5.3626  -11.7491   27.0721 N   0  0  0  0  0  0  0  0  0  0  0  0
    5.0793  -11.5941   28.5652 C   0  0  0  0  0  0  0  0  0  0  0  0
    3.6104  -11.2571   29.0265 C   0  0  0  0  0  0  0  0  0  0  0  0
    2.4978  -12.0652   28.4988 N   0  0  0  0  0  0  0  0  0  0  0  0
    1.3480  -11.2266   28.0380 C   0  0  0  0  0  0  0  0  0  0  0  0
    0.2708  -10.5536   28.9249 C   0  0  0  0  0  0  0  0  0  0  0  0
   -0.1394   -9.1966   28.4958 N   0  0  0  0  0  0  0  0  0  0  0  0
   -0.7974   -8.1169   29.2324 C   0  0  0  0  0  0  0  0  0  0  0  0
   -1.2443   -8.0890   30.3485 O   0  0  0  0  0  0  0  0  0  0  0  0
   -0.7978   -6.7981   28.4099 C   0  0  0  0  0  0  0  0  0  0  0  0
   -0.4384   -5.5150   29.1529 C   0  0  0  0  0  0  0  0  0  0  0  0
   -0.4183   -4.2278   28.6360 C   0  0  0  0  0  0  0  0  0  0  0  0
   -0.0918   -3.2601   29.6196 C   0  0  0  0  0  0  0  0  0  0  0  0
    0.1308   -3.7218   30.8416 N   0  0  0  0  0  0  0  0  0  0  0  0
   -0.0142   -5.3760   30.8110 S   0  0  0  0  0  0  0  0  0  0  0  0
    3.0048  -12.8086   27.3207 C   0  0  0  0  0  0  0  0  0  0  0  0
    4.5324  -12.9964   27.2707 C   0  0  0  0  0  0  0  0  0  0  0  0
    8.1361   -8.0632   24.7708 H   0  0  0  0  0  0  0  0  0  0  0  0
    9.0079   -7.9746   26.3045 H   0  0  0  0  0  0  0  0  0  0  0  0
    9.8630   -8.5251   24.8575 H   0  0  0  0  0  0  0  0  0  0  0  0
    9.2691  -10.4412   26.2955 H   0  0  0  0  0  0  0  0  0  0  0  0
    8.4379  -10.5590   24.7566 H   0  0  0  0  0  0  0  0  0  0  0  0
    7.1415   -9.5293   27.3487 H   0  0  0  0  0  0  0  0  0  0  0  0
    6.3151   -9.7270   25.7869 H   0  0  0  0  0  0  0  0  0  0  0  0
    5.6591  -10.7031   28.8548 H   0  0  0  0  0  0  0  0  0  0  0  0
    5.5597  -12.3703   29.1871 H   0  0  0  0  0  0  0  0  0  0  0  0
    3.4603  -10.2038   28.8013 H   0  0  0  0  0  0  0  0  0  0  0  0
    3.5897  -11.3606   30.1125 H   0  0  0  0  0  0  0  0  0  0  0  0
    1.8511  -10.4333   27.5085 H   0  0  0  0  0  0  0  0  0  0  0  0
    0.7712  -11.8182   27.3144 H   0  0  0  0  0  0  0  0  0  0  0  0
    0.7440  -10.4006   29.8837 H   0  0  0  0  0  0  0  0  0  0  0  0
   -0.6188  -11.1746   29.0587 H   0  0  0  0  0  0  0  0  0  0  0  0
    0.0326   -8.8927   27.5518 H   0  0  0  0  0  0  0  0  0  0  0  0
   -1.8099   -6.6721   28.0153 H   0  0  0  0  0  0  0  0  0  0  0  0
   -0.1483   -6.8898   27.5367 H   0  0  0  0  0  0  0  0  0  0  0  0
   -0.6504   -3.9828   27.6184 H   0  0  0  0  0  0  0  0  0  0  0  0
   -0.0176   -2.1914   29.4639 H   0  0  0  0  0  0  0  0  0  0  0  0
    2.5224  -13.7932   27.3082 H   0  0  0  0  0  0  0  0  0  0  0  0
    2.7218  -12.3134   26.3834 H   0  0  0  0  0  0  0  0  0  0  0  0
    4.9291  -13.7332   27.9904 H   0  0  0  0  0  0  0  0  0  0  0  0
    4.7154  -13.5290   26.3235 H   0  0  0  0  0  0  0  0  0  0  0  0
  1  2  1  0
  2  3  1  0
  3  4  1  0
  4  5  2  0
  4  6  1  0
  6  7  1  0
  7  8  1  0
  8  9  1  0
  9 10  1  0
 10 11  1  0
 11 12  1  0
 12 13  1  0
 13 14  2  0
 13 15  1  0
 15 16  1  0
 16 17  2  0
 17 18  1  0
 18 19  2  0
 19 20  1  0
  9 21  1  0
 21 22  1  0
 22  6  1  0
 20 16  1  0
  1 23  1  0
  1 24  1  0
  1 25  1  0
  2 26  1  0
  2 27  1  0
  3 28  1  0
  3 29  1  0
  7 30  1  0
  7 31  1  0
  8 32  1  0
  8 33  1  0
 10 34  1  0
 10 35  1  0
 11 36  1  0
 11 37  1  0
 12 38  1  0
 15 39  1  0
 15 40  1  0
 17 41  1  0
 18 42  1  0
 21 43  1  0
 21 44  1  0
 22 45  1  0
 22 46  1  0
M  END
>  <Energy>  (1) 
160.52274452541587

>  <compound_id>  (1) 
93814

>  <target_id>  (1) 
1

>  <reference_id>  (1) 
97

>  <inspiration_ids>  (1) 
[97, 186]

>  <energy_score>  (1) 
33.1517624213036

>  <distance_score>  (1) 
9.029784280175601

>  <path>  (1) 
/opt/xchem-fragalysis-2/maxwin/BulkDock/SCRATCH/511016/C93814-P97/C93814-P97.minimised.mol

>  <scratch_subdir>  (1) 
/opt/xchem-fragalysis-2/maxwin/BulkDock/SCRATCH/511016/C93814-P97

>  <fragmenstein_runtime>  (1) 
22.482113122940063

>  <fragmenstein_outcome>  (1) 
too moved

>  <fragmenstein_mode>  (1) 
expansion

>  <fragmenstein_error>  (1) 


$$$$
C93814-P186
     RDKit          3D

 46 47  0  0  0  0  0  0  0  0999 V2000
    9.6242   -5.8462   20.2320 C   0  0  0  0  0  0  0  0  0  0  0  0
    7.8723   -5.0220   20.9995 C   0  0  0  0  0  0  0  0  0  0  0  0
    7.1561   -5.7429   22.7792 C   0  0  0  0  0  0  0  0  0  0  0  0
    7.2983   -6.7046   24.3376 C   0  0  0  0  0  0  0  0  0  0  0  0
    8.0382   -7.6564   24.3625 O   0  0  0  0  0  0  0  0  0  0  0  0
    6.5338   -6.0965   25.3916 N   0  0  0  0  0  0  0  0  0  0  0  0
    5.1358   -6.7316   25.4639 C   0  0  0  0  0  0  0  0  0  0  0  0
    3.9770   -6.0394   26.2554 C   0  0  0  0  0  0  0  0  0  0  0  0
    4.2625   -6.0784   27.6879 N   0  0  0  0  0  0  0  0  0  0  0  0
    3.2709   -5.4455   28.5572 C   0  0  0  0  0  0  0  0  0  0  0  0
    2.8517   -3.9983   28.2651 C   0  0  0  0  0  0  0  0  0  0  0  0
    2.0922   -3.4125   29.3504 N   0  0  0  0  0  0  0  0  0  0  0  0
    1.1427   -3.9980   30.2634 C   0  0  0  0  0  0  0  0  0  0  0  0
    0.7975   -5.1365   30.4097 O   0  0  0  0  0  0  0  0  0  0  0  0
    0.5500   -2.9221   31.1789 C   0  0  0  0  0  0  0  0  0  0  0  0
   -0.2312   -1.9207   30.3945 C   0  0  0  0  0  0  0  0  0  0  0  0
   -0.9251   -2.0429   29.2062 C   0  0  0  0  0  0  0  0  0  0  0  0
   -1.4484   -0.7821   28.8166 C   0  0  0  0  0  0  0  0  0  0  0  0
   -1.2545    0.2388   29.6452 N   0  0  0  0  0  0  0  0  0  0  0  0
   -0.3686   -0.3002   30.9357 S   0  0  0  0  0  0  0  0  0  0  0  0
    5.6152   -5.5500   27.8167 C   0  0  0  0  0  0  0  0  0  0  0  0
    6.5014   -6.3804   26.8711 C   0  0  0  0  0  0  0  0  0  0  0  0
   10.5983   -5.5826   20.7249 H   0  0  0  0  0  0  0  0  0  0  0  0
    9.8518   -5.8958   19.1892 H   0  0  0  0  0  0  0  0  0  0  0  0
    9.8425   -6.9479   20.2735 H   0  0  0  0  0  0  0  0  0  0  0  0
    7.9124   -3.9793   21.1864 H   0  0  0  0  0  0  0  0  0  0  0  0
    7.0849   -5.1720   20.2275 H   0  0  0  0  0  0  0  0  0  0  0  0
    6.5466   -6.5787   22.4222 H   0  0  0  0  0  0  0  0  0  0  0  0
    6.6983   -4.8626   23.2578 H   0  0  0  0  0  0  0  0  0  0  0  0
    4.8152   -6.7925   24.4244 H   0  0  0  0  0  0  0  0  0  0  0  0
    5.1947   -7.8102   25.7009 H   0  0  0  0  0  0  0  0  0  0  0  0
    3.0503   -6.5832   26.0574 H   0  0  0  0  0  0  0  0  0  0  0  0
    3.8627   -5.0102   25.8965 H   0  0  0  0  0  0  0  0  0  0  0  0
    3.6442   -5.4920   29.5847 H   0  0  0  0  0  0  0  0  0  0  0  0
    2.3779   -6.0801   28.5522 H   0  0  0  0  0  0  0  0  0  0  0  0
    3.7222   -3.3528   28.1161 H   0  0  0  0  0  0  0  0  0  0  0  0
    2.2276   -3.9475   27.3674 H   0  0  0  0  0  0  0  0  0  0  0  0
    2.0695   -2.4025   29.4514 H   0  0  0  0  0  0  0  0  0  0  0  0
    1.3730   -2.4578   31.7349 H   0  0  0  0  0  0  0  0  0  0  0  0
   -0.1086   -3.4081   31.9085 H   0  0  0  0  0  0  0  0  0  0  0  0
   -1.0321   -2.9570   28.6326 H   0  0  0  0  0  0  0  0  0  0  0  0
   -2.0089   -0.5939   27.9131 H   0  0  0  0  0  0  0  0  0  0  0  0
    5.9693   -5.6820   28.8455 H   0  0  0  0  0  0  0  0  0  0  0  0
    5.6829   -4.4853   27.5634 H   0  0  0  0  0  0  0  0  0  0  0  0
    7.5273   -6.0907   27.1512 H   0  0  0  0  0  0  0  0  0  0  0  0
    6.5295   -7.4584   27.1131 H   0  0  0  0  0  0  0  0  0  0  0  0
  1  2  1  0
  2  3  1  0
  3  4  1  0
  4  5  2  0
  4  6  1  0
  6  7  1  0
  7  8  1  0
  8  9  1  0
  9 10  1  0
 10 11  1  0
 11 12  1  0
 12 13  1  0
 13 14  2  0
 13 15  1  0
 15 16  1  0
 16 17  2  0
 17 18  1  0
 18 19  2  0
 19 20  1  0
  9 21  1  0
 21 22  1  0
 22  6  1  0
 20 16  1  0
  1 23  1  0
  1 24  1  0
  1 25  1  0
  2 26  1  0
  2 27  1  0
  3 28  1  0
  3 29  1  0
  7 30  1  0
  7 31  1  0
  8 32  1  0
  8 33  1  0
 10 34  1  0
 10 35  1  0
 11 36  1  0
 11 37  1  0
 12 38  1  0
 15 39  1  0
 15 40  1  0
 17 41  1  0
 18 42  1  0
 21 43  1  0
 21 44  1  0
 22 45  1  0
 22 46  1  0
M  END
>  <Energy>  (2) 
347.04622243264919

>  <compound_id>  (2) 
93814

>  <target_id>  (2) 
1

>  <reference_id>  (2) 
186

>  <inspiration_ids>  (2) 
[97, 186]

>  <energy_score>  (2) 
219.67524032853987

>  <distance_score>  (2) 
6.931123699608757

>  <path>  (2) 
/opt/xchem-fragalysis-2/maxwin/BulkDock/SCRATCH/511016/C93814-P186/C93814-P186.minimised.mol

>  <scratch_subdir>  (2) 
/opt/xchem-fragalysis-2/maxwin/BulkDock/SCRATCH/511016/C93814-P186

>  <fragmenstein_runtime>  (2) 
15.146186828613281

>  <fragmenstein_outcome>  (2) 
too moved

>  <fragmenstein_mode>  (2) 
expansion

>  <fragmenstein_error>  (2) 


$$$$
C93832-P97
     RDKit          3D

 37 38  0  0  0  0  0  0  0  0999 V2000
    5.2828   -1.5082   23.7416 C   0  0  0  0  0  0  0  0  0  0  0  0
    4.5826   -1.4357   25.1540 C   0  0  0  0  0  0  0  0  0  0  0  0
    3.5671   -2.5487   25.7610 O   0  0  0  0  0  0  0  0  0  0  0  0
    2.7486   -2.2470   27.1282 C   0  0  0  0  0  0  0  0  0  0  0  0
    2.0805   -3.2787   28.1971 C   0  0  0  0  0  0  0  0  0  0  0  0
    2.5028   -3.5717   29.4976 C   0  0  0  0  0  0  0  0  0  0  0  0
    1.5026   -4.3044   30.0840 N   0  0  0  0  0  0  0  0  0  0  0  0
    1.4394   -4.8086   31.4417 C   0  0  0  0  0  0  0  0  0  0  0  0
    0.0378   -5.1182   31.9578 C   0  0  0  0  0  0  0  0  0  0  0  0
   -0.8547   -3.9892   31.8356 N   0  0  0  0  0  0  0  0  0  0  0  0
   -0.8802   -2.6377   32.5984 C   0  0  0  0  0  0  0  0  0  0  0  0
   -0.2319   -2.2623   33.4943 O   0  0  0  0  0  0  0  0  0  0  0  0
   -1.9991   -1.8004   31.9739 C   0  0  0  0  0  0  0  0  0  0  0  0
   -1.5368   -1.1630   30.7058 C   0  0  0  0  0  0  0  0  0  0  0  0
   -1.5059   -1.6390   29.4080 C   0  0  0  0  0  0  0  0  0  0  0  0
   -1.0171   -0.6365   28.5231 C   0  0  0  0  0  0  0  0  0  0  0  0
   -0.7029    0.5382   29.0604 N   0  0  0  0  0  0  0  0  0  0  0  0
   -0.9510    0.4473   30.6951 S   0  0  0  0  0  0  0  0  0  0  0  0
    0.4934   -4.4849   29.2237 N   0  0  0  0  0  0  0  0  0  0  0  0
    0.8062   -3.8429   28.0949 N   0  0  0  0  0  0  0  0  0  0  0  0
    4.5576   -1.7068   22.9526 H   0  0  0  0  0  0  0  0  0  0  0  0
    5.7648   -0.5477   23.5512 H   0  0  0  0  0  0  0  0  0  0  0  0
    5.9707   -2.3189   23.8842 H   0  0  0  0  0  0  0  0  0  0  0  0
    3.9455   -0.5444   25.1566 H   0  0  0  0  0  0  0  0  0  0  0  0
    5.3282   -1.2986   25.9443 H   0  0  0  0  0  0  0  0  0  0  0  0
    3.4814   -1.6700   27.7049 H   0  0  0  0  0  0  0  0  0  0  0  0
    1.9623   -1.5568   26.8098 H   0  0  0  0  0  0  0  0  0  0  0  0
    3.3873   -3.2748   30.0408 H   0  0  0  0  0  0  0  0  0  0  0  0
    1.9025   -4.0416   32.0743 H   0  0  0  0  0  0  0  0  0  0  0  0
    2.0775   -5.6919   31.4691 H   0  0  0  0  0  0  0  0  0  0  0  0
    0.0880   -5.3804   33.0192 H   0  0  0  0  0  0  0  0  0  0  0  0
   -0.4129   -5.9536   31.4119 H   0  0  0  0  0  0  0  0  0  0  0  0
   -1.6093   -4.0124   31.1640 H   0  0  0  0  0  0  0  0  0  0  0  0
   -2.3131   -1.0508   32.7105 H   0  0  0  0  0  0  0  0  0  0  0  0
   -2.8791   -2.4250   31.7891 H   0  0  0  0  0  0  0  0  0  0  0  0
   -1.8002   -2.6297   29.0869 H   0  0  0  0  0  0  0  0  0  0  0  0
   -0.8816   -0.7509   27.4564 H   0  0  0  0  0  0  0  0  0  0  0  0
  1  2  1  0
  2  3  1  0
  3  4  1  0
  4  5  1  0
  5  6  2  0
  6  7  1  0
  7  8  1  0
  8  9  1  0
  9 10  1  0
 10 11  1  0
 11 12  2  0
 11 13  1  0
 13 14  1  0
 14 15  2  0
 15 16  1  0
 16 17  2  0
 17 18  1  0
  7 19  1  0
 19 20  2  0
 20  5  1  0
 18 14  1  0
  1 21  1  0
  1 22  1  0
  1 23  1  0
  2 24  1  0
  2 25  1  0
  4 26  1  0
  4 27  1  0
  6 28  1  0
  8 29  1  0
  8 30  1  0
  9 31  1  0
  9 32  1  0
 10 33  1  0
 13 34  1  0
 13 35  1  0
 15 36  1  0
 16 37  1  0
M  END
>  <Energy>  (3) 
86.879092419691943

>  <compound_id>  (3) 
93832

>  <target_id>  (3) 
1

>  <reference_id>  (3) 
97

>  <inspiration_ids>  (3) 
[97, 186]

>  <energy_score>  (3) 
28.98219166823833

>  <distance_score>  (3) 
7.506782326695993

>  <path>  (3) 
/opt/xchem-fragalysis-2/maxwin/BulkDock/SCRATCH/511016/C93832-P97/C93832-P97.minimised.mol

>  <scratch_subdir>  (3) 
/opt/xchem-fragalysis-2/maxwin/BulkDock/SCRATCH/511016/C93832-P97

>  <fragmenstein_runtime>  (3) 
7.210516929626465

>  <fragmenstein_outcome>  (3) 
too moved

>  <fragmenstein_mode>  (3) 
expansion

>  <fragmenstein_error>  (3) 


$$$$
C93832-P186
     RDKit          3D

 37 38  0  0  0  0  0  0  0  0999 V2000
    7.6235   -2.9732   26.7049 C   0  0  0  0  0  0  0  0  0  0  0  0
    6.7037   -4.1777   26.4976 C   0  0  0  0  0  0  0  0  0  0  0  0
    5.6510   -4.0959   27.4959 O   0  0  0  0  0  0  0  0  0  0  0  0
    4.7137   -5.1998   27.4568 C   0  0  0  0  0  0  0  0  0  0  0  0
    3.7191   -5.1509   28.5800 C   0  0  0  0  0  0  0  0  0  0  0  0
    3.6683   -4.3339   29.6908 C   0  0  0  0  0  0  0  0  0  0  0  0
    2.5622   -4.7412   30.3733 N   0  0  0  0  0  0  0  0  0  0  0  0
    2.0382   -4.3065   31.6511 C   0  0  0  0  0  0  0  0  0  0  0  0
    2.6582   -3.0253   32.2011 C   0  0  0  0  0  0  0  0  0  0  0  0
    2.3555   -1.8635   31.3977 N   0  0  0  0  0  0  0  0  0  0  0  0
    2.4164   -0.4624   31.7076 C   0  0  0  0  0  0  0  0  0  0  0  0
    2.6582    0.1005   32.7356 O   0  0  0  0  0  0  0  0  0  0  0  0
    2.0526    0.3611   30.4616 C   0  0  0  0  0  0  0  0  0  0  0  0
    0.6756    0.0117   29.9958 C   0  0  0  0  0  0  0  0  0  0  0  0
    0.2466   -0.5341   28.8009 C   0  0  0  0  0  0  0  0  0  0  0  0
   -1.1602   -0.7435   28.8351 C   0  0  0  0  0  0  0  0  0  0  0  0
   -1.7921   -0.3731   29.9453 N   0  0  0  0  0  0  0  0  0  0  0  0
   -0.6862    0.2399   31.0075 S   0  0  0  0  0  0  0  0  0  0  0  0
    1.9495   -5.7483   29.7306 N   0  0  0  0  0  0  0  0  0  0  0  0
    2.6617   -6.0260   28.6447 N   0  0  0  0  0  0  0  0  0  0  0  0
    7.0691   -2.0438   26.5351 H   0  0  0  0  0  0  0  0  0  0  0  0
    8.5160   -2.9695   26.0840 H   0  0  0  0  0  0  0  0  0  0  0  0
    7.9520   -2.9397   27.7503 H   0  0  0  0  0  0  0  0  0  0  0  0
    7.2575   -5.1097   26.6479 H   0  0  0  0  0  0  0  0  0  0  0  0
    6.2475   -4.1658   25.5042 H   0  0  0  0  0  0  0  0  0  0  0  0
    5.2733   -6.1397   27.5224 H   0  0  0  0  0  0  0  0  0  0  0  0
    4.1830   -5.1675   26.4990 H   0  0  0  0  0  0  0  0  0  0  0  0
    4.3292   -3.5443   30.0169 H   0  0  0  0  0  0  0  0  0  0  0  0
    0.9566   -4.1775   31.5248 H   0  0  0  0  0  0  0  0  0  0  0  0
    2.2109   -5.1313   32.3518 H   0  0  0  0  0  0  0  0  0  0  0  0
    3.7480   -3.0989   32.2789 H   0  0  0  0  0  0  0  0  0  0  0  0
    2.2798   -2.8273   33.2099 H   0  0  0  0  0  0  0  0  0  0  0  0
    2.2036   -1.9754   30.3989 H   0  0  0  0  0  0  0  0  0  0  0  0
    2.7977    0.1630   29.6825 H   0  0  0  0  0  0  0  0  0  0  0  0
    2.1120    1.4277   30.7077 H   0  0  0  0  0  0  0  0  0  0  0  0
    0.8871   -0.7800   27.9641 H   0  0  0  0  0  0  0  0  0  0  0  0
   -1.7573   -1.1782   28.0420 H   0  0  0  0  0  0  0  0  0  0  0  0
  1  2  1  0
  2  3  1  0
  3  4  1  0
  4  5  1  0
  5  6  2  0
  6  7  1  0
  7  8  1  0
  8  9  1  0
  9 10  1  0
 10 11  1  0
 11 12  2  0
 11 13  1  0
 13 14  1  0
 14 15  2  0
 15 16  1  0
 16 17  2  0
 17 18  1  0
  7 19  1  0
 19 20  2  0
 20  5  1  0
 18 14  1  0
  1 21  1  0
  1 22  1  0
  1 23  1  0
  2 24  1  0
  2 25  1  0
  4 26  1  0
  4 27  1  0
  6 28  1  0
  8 29  1  0
  8 30  1  0
  9 31  1  0
  9 32  1  0
 10 33  1  0
 13 34  1  0
 13 35  1  0
 15 36  1  0
 16 37  1  0
M  END
>  <Energy>  (4) 
25.779242100861104

>  <compound_id>  (4) 
93832

>  <target_id>  (4) 
1

>  <reference_id>  (4) 
186

>  <inspiration_ids>  (4) 
[97, 186]

>  <energy_score>  (4) 
-21.94153816792823

>  <distance_score>  (4) 
8.060393824589571

>  <path>  (4) 
/opt/xchem-fragalysis-2/maxwin/BulkDock/SCRATCH/511016/C93832-P186/C93832-P186.minimised.mol

>  <scratch_subdir>  (4) 
/opt/xchem-fragalysis-2/maxwin/BulkDock/SCRATCH/511016/C93832-P186

>  <fragmenstein_runtime>  (4) 
16.053346872329712

>  <fragmenstein_outcome>  (4) 
too moved

>  <fragmenstein_mode>  (4) 
expansion

>  <fragmenstein_error>  (4) 


$$$$
C93835-P97
     RDKit          3D

 49 50  0  0  0  0  0  0  0  0999 V2000
   11.1106   -4.9868   17.6221 C   0  0  0  0  0  0  0  0  0  0  0  0
    9.9695   -5.6069   19.2273 C   0  0  0  0  0  0  0  0  0  0  0  0
    9.0791   -4.8254   20.3665 N   0  0  0  0  0  0  0  0  0  0  0  0
   11.1119   -4.7670   20.7652 C   0  0  0  0  0  0  0  0  0  0  0  0
    7.8126   -5.3489   21.9653 C   0  0  0  0  0  0  0  0  0  0  0  0
    6.2983   -5.5718   23.2295 C   0  0  0  0  0  0  0  0  0  0  0  0
    6.2514   -4.5930   23.9855 O   0  0  0  0  0  0  0  0  0  0  0  0
    5.0360   -6.9237   23.1500 N   0  0  0  0  0  0  0  0  0  0  0  0
    3.1923   -7.1482   24.0718 C   0  0  0  0  0  0  0  0  0  0  0  0
    1.5258   -8.1103   23.2761 C   0  0  0  0  0  0  0  0  0  0  0  0
    0.3615   -7.1134   23.7917 C   0  0  0  0  0  0  0  0  0  0  0  0
   -0.8062   -6.9077   24.8146 C   0  0  0  0  0  0  0  0  0  0  0  0
   -0.8545   -7.2277   26.3147 C   0  0  0  0  0  0  0  0  0  0  0  0
   -0.3356   -6.6150   27.5259 N   0  0  0  0  0  0  0  0  0  0  0  0
   -0.4535   -5.2804   28.0280 C   0  0  0  0  0  0  0  0  0  0  0  0
   -0.9392   -4.3108   27.5425 O   0  0  0  0  0  0  0  0  0  0  0  0
    0.0595   -5.1409   29.4922 C   0  0  0  0  0  0  0  0  0  0  0  0
   -0.0474   -3.7010   29.9445 C   0  0  0  0  0  0  0  0  0  0  0  0
    0.4580   -2.5489   29.3641 C   0  0  0  0  0  0  0  0  0  0  0  0
    0.0171   -1.3969   30.0709 C   0  0  0  0  0  0  0  0  0  0  0  0
   -0.7245   -1.6038   31.1548 N   0  0  0  0  0  0  0  0  0  0  0  0
   -0.9309   -3.2415   31.3378 S   0  0  0  0  0  0  0  0  0  0  0  0
    1.4226   -5.9997   23.7261 C   0  0  0  0  0  0  0  0  0  0  0  0
   11.3419   -5.7429   16.8371 H   0  0  0  0  0  0  0  0  0  0  0  0
   12.1145   -4.6701   17.9994 H   0  0  0  0  0  0  0  0  0  0  0  0
   10.7809   -4.1979   16.9343 H   0  0  0  0  0  0  0  0  0  0  0  0
    9.4534   -6.4075   19.0653 H   0  0  0  0  0  0  0  0  0  0  0  0
    9.2131   -4.8715   19.2635 H   0  0  0  0  0  0  0  0  0  0  0  0
   11.5310   -4.6488   21.8156 H   0  0  0  0  0  0  0  0  0  0  0  0
   11.7111   -5.5733   20.3056 H   0  0  0  0  0  0  0  0  0  0  0  0
   11.6097   -3.8005   20.5445 H   0  0  0  0  0  0  0  0  0  0  0  0
    7.6597   -4.2492   22.0196 H   0  0  0  0  0  0  0  0  0  0  0  0
    8.2702   -5.5240   22.9621 H   0  0  0  0  0  0  0  0  0  0  0  0
    5.3438   -7.6231   22.5285 H   0  0  0  0  0  0  0  0  0  0  0  0
    3.4633   -7.9995   23.3996 H   0  0  0  0  0  0  0  0  0  0  0  0
    1.4365   -8.1333   22.1627 H   0  0  0  0  0  0  0  0  0  0  0  0
    1.2388   -9.1803   23.1540 H   0  0  0  0  0  0  0  0  0  0  0  0
   -0.3021   -7.0733   22.8978 H   0  0  0  0  0  0  0  0  0  0  0  0
   -1.6022   -7.5620   24.4169 H   0  0  0  0  0  0  0  0  0  0  0  0
   -1.2131   -5.9151   24.6444 H   0  0  0  0  0  0  0  0  0  0  0  0
   -1.9188   -7.0393   26.4911 H   0  0  0  0  0  0  0  0  0  0  0  0
   -0.6599   -8.2825   26.4549 H   0  0  0  0  0  0  0  0  0  0  0  0
    0.0674   -7.2099   28.2528 H   0  0  0  0  0  0  0  0  0  0  0  0
    1.1019   -5.4405   29.5881 H   0  0  0  0  0  0  0  0  0  0  0  0
   -0.5460   -5.7997   30.1250 H   0  0  0  0  0  0  0  0  0  0  0  0
    1.0406   -2.5284   28.4512 H   0  0  0  0  0  0  0  0  0  0  0  0
    0.2322   -0.3709   29.8024 H   0  0  0  0  0  0  0  0  0  0  0  0
    1.0211   -5.7409   22.6485 H   0  0  0  0  0  0  0  0  0  0  0  0
    1.3729   -4.9172   23.5465 H   0  0  0  0  0  0  0  0  0  0  0  0
  1  2  1  0
  2  3  1  0
  3  4  1  0
  3  5  1  0
  5  6  1  0
  6  7  2  0
  6  8  1  0
  8  9  1  0
  9 10  1  0
 10 11  1  0
 11 12  1  0
 12 13  1  0
 13 14  1  0
 14 15  1  0
 15 16  2  0
 15 17  1  0
 17 18  1  0
 18 19  2  0
 19 20  1  0
 20 21  2  0
 21 22  1  0
 11 23  1  0
 23  9  1  0
 22 18  1  0
  1 24  1  0
  1 25  1  0
  1 26  1  0
  2 27  1  0
  2 28  1  0
  4 29  1  0
  4 30  1  0
  4 31  1  0
  5 32  1  0
  5 33  1  0
  8 34  1  0
  9 35  1  0
 10 36  1  0
 10 37  1  0
 11 38  1  0
 12 39  1  0
 12 40  1  0
 13 41  1  0
 13 42  1  0
 14 43  1  0
 17 44  1  0
 17 45  1  0
 19 46  1  0
 20 47  1  0
 23 48  1  0
 23 49  1  0
M  END
>  <Energy>  (5) 
1167.2072816705095

>  <compound_id>  (5) 
93835

>  <target_id>  (5) 
1

>  <reference_id>  (5) 
97

>  <inspiration_ids>  (5) 
[97, 186]

>  <energy_score>  (5) 
1077.6185314910617

>  <distance_score>  (5) 
7.533513942994984

>  <path>  (5) 
/opt/xchem-fragalysis-2/maxwin/BulkDock/SCRATCH/511016/C93835-P97/C93835-P97.minimised.mol

>  <scratch_subdir>  (5) 
/opt/xchem-fragalysis-2/maxwin/BulkDock/SCRATCH/511016/C93835-P97

>  <fragmenstein_runtime>  (5) 
18.60940456390381

>  <fragmenstein_outcome>  (5) 
too moved

>  <fragmenstein_mode>  (5) 
expansion

>  <fragmenstein_error>  (5) 


$$$$
C93835-P186
     RDKit          3D

 49 50  0  0  0  0  0  0  0  0999 V2000
   12.7406   -4.5586   19.9915 C   0  0  0  0  0  0  0  0  0  0  0  0
   11.5194   -5.1461   20.7654 C   0  0  0  0  0  0  0  0  0  0  0  0
   10.3136   -3.9229   21.2811 N   0  0  0  0  0  0  0  0  0  0  0  0
   11.3133   -3.9970   22.7904 C   0  0  0  0  0  0  0  0  0  0  0  0
    8.1653   -4.3949   21.2034 C   0  0  0  0  0  0  0  0  0  0  0  0
    7.0994   -5.0531   22.9092 C   0  0  0  0  0  0  0  0  0  0  0  0
    6.6767   -4.1262   23.4881 O   0  0  0  0  0  0  0  0  0  0  0  0
    6.9439   -6.5509   23.5016 N   0  0  0  0  0  0  0  0  0  0  0  0
    6.4050   -7.0614   24.8055 C   0  0  0  0  0  0  0  0  0  0  0  0
    6.1118   -5.9521   25.8688 C   0  0  0  0  0  0  0  0  0  0  0  0
    4.9801   -6.8280   26.4469 C   0  0  0  0  0  0  0  0  0  0  0  0
    3.6745   -6.1320   26.8385 C   0  0  0  0  0  0  0  0  0  0  0  0
    3.8702   -5.0996   27.9457 C   0  0  0  0  0  0  0  0  0  0  0  0
    2.7663   -4.1655   27.9611 N   0  0  0  0  0  0  0  0  0  0  0  0
    1.6189   -4.0674   28.8360 C   0  0  0  0  0  0  0  0  0  0  0  0
    1.3317   -4.6879   29.8203 O   0  0  0  0  0  0  0  0  0  0  0  0
    0.6531   -2.9919   28.2699 C   0  0  0  0  0  0  0  0  0  0  0  0
   -0.1214   -2.2465   29.3171 C   0  0  0  0  0  0  0  0  0  0  0  0
   -0.7975   -2.6794   30.4413 C   0  0  0  0  0  0  0  0  0  0  0  0
   -1.4317   -1.5874   31.0964 C   0  0  0  0  0  0  0  0  0  0  0  0
   -1.3058   -0.3881   30.5377 N   0  0  0  0  0  0  0  0  0  0  0  0
   -0.3712   -0.5492   29.1760 S   0  0  0  0  0  0  0  0  0  0  0  0
    4.9759   -7.5622   25.0653 C   0  0  0  0  0  0  0  0  0  0  0  0
   13.1778   -3.7059   20.5164 H   0  0  0  0  0  0  0  0  0  0  0  0
   13.5160   -5.3283   19.9167 H   0  0  0  0  0  0  0  0  0  0  0  0
   12.5064   -4.2514   18.9686 H   0  0  0  0  0  0  0  0  0  0  0  0
   10.9573   -5.8903   20.2299 H   0  0  0  0  0  0  0  0  0  0  0  0
   11.9653   -5.6937   21.5973 H   0  0  0  0  0  0  0  0  0  0  0  0
   11.3709   -4.9888   23.2544 H   0  0  0  0  0  0  0  0  0  0  0  0
   11.0059   -3.3267   23.5988 H   0  0  0  0  0  0  0  0  0  0  0  0
   12.3466   -3.7467   22.5110 H   0  0  0  0  0  0  0  0  0  0  0  0
    7.6787   -3.4977   21.3716 H   0  0  0  0  0  0  0  0  0  0  0  0
    7.9488   -4.8612   20.2952 H   0  0  0  0  0  0  0  0  0  0  0  0
    7.2762   -7.1711   22.8421 H   0  0  0  0  0  0  0  0  0  0  0  0
    7.1372   -7.7840   25.1964 H   0  0  0  0  0  0  0  0  0  0  0  0
    5.7429   -4.9998   25.4801 H   0  0  0  0  0  0  0  0  0  0  0  0
    6.9365   -5.7440   26.5573 H   0  0  0  0  0  0  0  0  0  0  0  0
    5.3482   -7.4684   27.2595 H   0  0  0  0  0  0  0  0  0  0  0  0
    3.2551   -5.6308   25.9599 H   0  0  0  0  0  0  0  0  0  0  0  0
    2.9353   -6.8773   27.1500 H   0  0  0  0  0  0  0  0  0  0  0  0
    4.7787   -4.5092   27.7964 H   0  0  0  0  0  0  0  0  0  0  0  0
    3.9339   -5.5930   28.9203 H   0  0  0  0  0  0  0  0  0  0  0  0
    2.7207   -3.4247   27.2711 H   0  0  0  0  0  0  0  0  0  0  0  0
   -0.0517   -3.5032   27.6048 H   0  0  0  0  0  0  0  0  0  0  0  0
    1.2098   -2.2729   27.6575 H   0  0  0  0  0  0  0  0  0  0  0  0
   -0.8261   -3.7071   30.7778 H   0  0  0  0  0  0  0  0  0  0  0  0
   -2.0116   -1.6513   32.0081 H   0  0  0  0  0  0  0  0  0  0  0  0
    4.8637   -8.6456   25.1660 H   0  0  0  0  0  0  0  0  0  0  0  0
    4.2210   -7.2249   24.3704 H   0  0  0  0  0  0  0  0  0  0  0  0
  1  2  1  0
  2  3  1  0
  3  4  1  0
  3  5  1  0
  5  6  1  0
  6  7  2  0
  6  8  1  0
  8  9  1  0
  9 10  1  0
 10 11  1  0
 11 12  1  0
 12 13  1  0
 13 14  1  0
 14 15  1  0
 15 16  2  0
 15 17  1  0
 17 18  1  0
 18 19  2  0
 19 20  1  0
 20 21  2  0
 21 22  1  0
 11 23  1  0
 23  9  1  0
 22 18  1  0
  1 24  1  0
  1 25  1  0
  1 26  1  0
  2 27  1  0
  2 28  1  0
  4 29  1  0
  4 30  1  0
  4 31  1  0
  5 32  1  0
  5 33  1  0
  8 34  1  0
  9 35  1  0
 10 36  1  0
 10 37  1  0
 11 38  1  0
 12 39  1  0
 12 40  1  0
 13 41  1  0
 13 42  1  0
 14 43  1  0
 17 44  1  0
 17 45  1  0
 19 46  1  0
 20 47  1  0
 23 48  1  0
 23 49  1  0
M  END
>  <Energy>  (6) 
462.98591834422473

>  <compound_id>  (6) 
93835

>  <target_id>  (6) 
1

>  <reference_id>  (6) 
186

>  <inspiration_ids>  (6) 
[97, 186]

>  <energy_score>  (6) 
373.39716816477204

>  <distance_score>  (6) 
7.789921256951104

>  <path>  (6) 
/opt/xchem-fragalysis-2/maxwin/BulkDock/SCRATCH/511016/C93835-P186/C93835-P186.minimised.mol

>  <scratch_subdir>  (6) 
/opt/xchem-fragalysis-2/maxwin/BulkDock/SCRATCH/511016/C93835-P186

>  <fragmenstein_runtime>  (6) 
27.694289207458496

>  <fragmenstein_outcome>  (6) 
too moved

>  <fragmenstein_mode>  (6) 
expansion

>  <fragmenstein_error>  (6) 


$$$$
C93838-P97
     RDKit          3D

 48 49  0  0  0  0  0  0  0  0999 V2000
    3.3235   -6.7720   24.4055 C   0  0  0  0  0  0  0  0  0  0  0  0
    2.2687   -5.2962   25.1029 C   0  0  0  0  0  0  0  0  0  0  0  0
    0.8673   -5.7792   23.7605 C   0  0  0  0  0  0  0  0  0  0  0  0
    2.9522   -3.4148   24.9230 C   0  0  0  0  0  0  0  0  0  0  0  0
    4.1561   -2.5486   24.7049 C   0  0  0  0  0  0  0  0  0  0  0  0
    4.9302   -1.7367   24.3720 N   0  0  0  0  0  0  0  0  0  0  0  0
    1.2717   -4.7864   26.7207 C   0  0  0  0  0  0  0  0  0  0  0  0
    1.6933   -3.8546   27.3539 O   0  0  0  0  0  0  0  0  0  0  0  0
    0.1064   -5.6244   26.9367 N   0  0  0  0  0  0  0  0  0  0  0  0
   -0.8830   -5.6176   27.9941 C   0  0  0  0  0  0  0  0  0  0  0  0
   -0.8212   -6.7021   29.0547 C   0  0  0  0  0  0  0  0  0  0  0  0
   -0.1088   -5.7293   30.0297 C   0  0  0  0  0  0  0  0  0  0  0  0
   -0.6152   -5.8423   31.4660 C   0  0  0  0  0  0  0  0  0  0  0  0
    0.0937   -4.8715   32.4010 C   0  0  0  0  0  0  0  0  0  0  0  0
   -0.4563   -3.5426   32.2849 N   0  0  0  0  0  0  0  0  0  0  0  0
    0.1740   -2.2833   31.9907 C   0  0  0  0  0  0  0  0  0  0  0  0
    1.3036   -2.0267   31.6893 O   0  0  0  0  0  0  0  0  0  0  0  0
   -0.8615   -1.1492   32.0517 C   0  0  0  0  0  0  0  0  0  0  0  0
   -0.9570   -0.4656   30.7266 C   0  0  0  0  0  0  0  0  0  0  0  0
   -1.4866   -0.8925   29.5236 C   0  0  0  0  0  0  0  0  0  0  0  0
   -1.3605    0.1238   28.5348 C   0  0  0  0  0  0  0  0  0  0  0  0
   -0.8180    1.2726   28.9239 N   0  0  0  0  0  0  0  0  0  0  0  0
   -0.3495    1.1210   30.5061 S   0  0  0  0  0  0  0  0  0  0  0  0
   -0.6048   -4.5724   29.1324 C   0  0  0  0  0  0  0  0  0  0  0  0
    2.6474   -7.4756   23.9098 H   0  0  0  0  0  0  0  0  0  0  0  0
    4.3036   -6.7655   23.8406 H   0  0  0  0  0  0  0  0  0  0  0  0
    3.7730   -7.4376   25.0902 H   0  0  0  0  0  0  0  0  0  0  0  0
   -0.1660   -5.7298   24.1574 H   0  0  0  0  0  0  0  0  0  0  0  0
    0.7892   -6.8504   23.5279 H   0  0  0  0  0  0  0  0  0  0  0  0
    0.9365   -5.1260   22.8805 H   0  0  0  0  0  0  0  0  0  0  0  0
    2.5751   -3.1456   23.9174 H   0  0  0  0  0  0  0  0  0  0  0  0
    2.5508   -2.8560   25.7703 H   0  0  0  0  0  0  0  0  0  0  0  0
    0.1042   -6.3741   26.2446 H   0  0  0  0  0  0  0  0  0  0  0  0
   -1.8503   -5.6177   27.5255 H   0  0  0  0  0  0  0  0  0  0  0  0
   -0.3619   -7.6272   28.7199 H   0  0  0  0  0  0  0  0  0  0  0  0
   -1.8100   -6.9772   29.4181 H   0  0  0  0  0  0  0  0  0  0  0  0
    0.9831   -5.7933   29.9960 H   0  0  0  0  0  0  0  0  0  0  0  0
   -1.6969   -5.6858   31.5136 H   0  0  0  0  0  0  0  0  0  0  0  0
   -0.4431   -6.8648   31.8144 H   0  0  0  0  0  0  0  0  0  0  0  0
   -0.0611   -5.1776   33.4406 H   0  0  0  0  0  0  0  0  0  0  0  0
    1.1703   -4.8280   32.2084 H   0  0  0  0  0  0  0  0  0  0  0  0
   -1.4085   -3.3736   32.5831 H   0  0  0  0  0  0  0  0  0  0  0  0
   -0.5459   -0.4639   32.8474 H   0  0  0  0  0  0  0  0  0  0  0  0
   -1.8571   -1.5096   32.3316 H   0  0  0  0  0  0  0  0  0  0  0  0
   -1.9267   -1.8611   29.3422 H   0  0  0  0  0  0  0  0  0  0  0  0
   -1.6793    0.0472   27.5032 H   0  0  0  0  0  0  0  0  0  0  0  0
   -1.4695   -4.0283   29.5102 H   0  0  0  0  0  0  0  0  0  0  0  0
    0.1410   -3.7946   28.9682 H   0  0  0  0  0  0  0  0  0  0  0  0
  1  2  1  0
  2  3  1  0
  2  4  1  0
  4  5  1  0
  5  6  3  0
  2  7  1  0
  7  8  2  0
  7  9  1  0
  9 10  1  0
 10 11  1  0
 11 12  1  0
 12 13  1  0
 13 14  1  0
 14 15  1  0
 15 16  1  0
 16 17  2  0
 16 18  1  0
 18 19  1  0
 19 20  2  0
 20 21  1  0
 21 22  2  0
 22 23  1  0
 12 24  1  0
 24 10  1  0
 23 19  1  0
  1 25  1  0
  1 26  1  0
  1 27  1  0
  3 28  1  0
  3 29  1  0
  3 30  1  0
  4 31  1  0
  4 32  1  0
  9 33  1  0
 10 34  1  0
 11 35  1  0
 11 36  1  0
 12 37  1  0
 13 38  1  0
 13 39  1  0
 14 40  1  0
 14 41  1  0
 15 42  1  0
 18 43  1  0
 18 44  1  0
 20 45  1  0
 21 46  1  0
 24 47  1  0
 24 48  1  0
M  END
>  <Energy>  (7) 
275.71412683771626

>  <compound_id>  (7) 
93838

>  <target_id>  (7) 
1

>  <reference_id>  (7) 
97

>  <inspiration_ids>  (7) 
[97, 186]

>  <energy_score>  (7) 
220.9958757292718

>  <distance_score>  (7) 
5.513238739682196

>  <path>  (7) 
/opt/xchem-fragalysis-2/maxwin/BulkDock/SCRATCH/511016/C93838-P97/C93838-P97.minimised.mol

>  <scratch_subdir>  (7) 
/opt/xchem-fragalysis-2/maxwin/BulkDock/SCRATCH/511016/C93838-P97

>  <fragmenstein_runtime>  (7) 
43.767274379730225

>  <fragmenstein_outcome>  (7) 
too moved

>  <fragmenstein_mode>  (7) 
expansion

>  <fragmenstein_error>  (7) 


$$$$
C93838-P186
     RDKit          3D

 48 49  0  0  0  0  0  0  0  0999 V2000
    7.5918   -5.8135   28.9972 C   0  0  0  0  0  0  0  0  0  0  0  0
    6.8045   -6.3102   27.7587 C   0  0  0  0  0  0  0  0  0  0  0  0
    7.0715   -7.8327   27.6727 C   0  0  0  0  0  0  0  0  0  0  0  0
    7.3551   -5.6062   26.4926 C   0  0  0  0  0  0  0  0  0  0  0  0
    6.9584   -6.2199   25.2144 C   0  0  0  0  0  0  0  0  0  0  0  0
    6.7401   -6.6759   24.1723 N   0  0  0  0  0  0  0  0  0  0  0  0
    5.2652   -6.0559   27.9946 C   0  0  0  0  0  0  0  0  0  0  0  0
    4.5283   -7.0018   27.9781 O   0  0  0  0  0  0  0  0  0  0  0  0
    5.0031   -4.6612   28.2814 N   0  0  0  0  0  0  0  0  0  0  0  0
    3.7813   -3.9841   28.7338 C   0  0  0  0  0  0  0  0  0  0  0  0
    2.4875   -4.8218   28.8384 C   0  0  0  0  0  0  0  0  0  0  0  0
    2.1617   -4.0847   30.1596 C   0  0  0  0  0  0  0  0  0  0  0  0
    1.5033   -4.9716   31.2136 C   0  0  0  0  0  0  0  0  0  0  0  0
    1.2724   -4.2274   32.5241 C   0  0  0  0  0  0  0  0  0  0  0  0
    0.2690   -3.2011   32.4095 N   0  0  0  0  0  0  0  0  0  0  0  0
   -1.1107   -3.2718   32.0136 C   0  0  0  0  0  0  0  0  0  0  0  0
   -1.8025   -4.2148   31.7523 O   0  0  0  0  0  0  0  0  0  0  0  0
   -1.7247   -1.8737   31.9634 C   0  0  0  0  0  0  0  0  0  0  0  0
   -1.1446   -1.1165   30.8189 C   0  0  0  0  0  0  0  0  0  0  0  0
   -1.1358   -1.3983   29.4653 C   0  0  0  0  0  0  0  0  0  0  0  0
   -0.4295   -0.3844   28.7602 C   0  0  0  0  0  0  0  0  0  0  0  0
    0.0654    0.6147   29.4835 N   0  0  0  0  0  0  0  0  0  0  0  0
   -0.3022    0.3501   31.0715 S   0  0  0  0  0  0  0  0  0  0  0  0
    3.6834   -3.7835   30.2679 C   0  0  0  0  0  0  0  0  0  0  0  0
    8.6248   -6.1806   28.9833 H   0  0  0  0  0  0  0  0  0  0  0  0
    7.6490   -4.7213   29.0461 H   0  0  0  0  0  0  0  0  0  0  0  0
    7.1250   -6.1620   29.9258 H   0  0  0  0  0  0  0  0  0  0  0  0
    8.1355   -8.0422   27.5133 H   0  0  0  0  0  0  0  0  0  0  0  0
    6.5160   -8.2969   26.8524 H   0  0  0  0  0  0  0  0  0  0  0  0
    6.7687   -8.3396   28.5966 H   0  0  0  0  0  0  0  0  0  0  0  0
    8.4517   -5.6175   26.5486 H   0  0  0  0  0  0  0  0  0  0  0  0
    7.0551   -4.5519   26.4869 H   0  0  0  0  0  0  0  0  0  0  0  0
    5.8789   -4.1544   28.2832 H   0  0  0  0  0  0  0  0  0  0  0  0
    3.6321   -3.0499   28.1775 H   0  0  0  0  0  0  0  0  0  0  0  0
    1.7747   -4.6443   28.0300 H   0  0  0  0  0  0  0  0  0  0  0  0
    2.6159   -5.8999   28.9642 H   0  0  0  0  0  0  0  0  0  0  0  0
    1.5770   -3.1740   29.9674 H   0  0  0  0  0  0  0  0  0  0  0  0
    2.1317   -5.8433   31.4173 H   0  0  0  0  0  0  0  0  0  0  0  0
    0.5518   -5.3536   30.8249 H   0  0  0  0  0  0  0  0  0  0  0  0
    2.1921   -3.7574   32.8857 H   0  0  0  0  0  0  0  0  0  0  0  0
    0.9183   -4.9334   33.2825 H   0  0  0  0  0  0  0  0  0  0  0  0
    0.5011   -2.2383   32.6296 H   0  0  0  0  0  0  0  0  0  0  0  0
   -2.8087   -1.9714   31.8314 H   0  0  0  0  0  0  0  0  0  0  0  0
   -1.5653   -1.3794   32.9286 H   0  0  0  0  0  0  0  0  0  0  0  0
   -1.5865   -2.2714   29.0072 H   0  0  0  0  0  0  0  0  0  0  0  0
   -0.2543   -0.3571   27.6934 H   0  0  0  0  0  0  0  0  0  0  0  0
    4.2513   -4.5069   30.8611 H   0  0  0  0  0  0  0  0  0  0  0  0
    3.9307   -2.7783   30.6218 H   0  0  0  0  0  0  0  0  0  0  0  0
  1  2  1  0
  2  3  1  0
  2  4  1  0
  4  5  1  0
  5  6  3  0
  2  7  1  0
  7  8  2  0
  7  9  1  0
  9 10  1  0
 10 11  1  0
 11 12  1  0
 12 13  1  0
 13 14  1  0
 14 15  1  0
 15 16  1  0
 16 17  2  0
 16 18  1  0
 18 19  1  0
 19 20  2  0
 20 21  1  0
 21 22  2  0
 22 23  1  0
 12 24  1  0
 24 10  1  0
 23 19  1  0
  1 25  1  0
  1 26  1  0
  1 27  1  0
  3 28  1  0
  3 29  1  0
  3 30  1  0
  4 31  1  0
  4 32  1  0
  9 33  1  0
 10 34  1  0
 11 35  1  0
 11 36  1  0
 12 37  1  0
 13 38  1  0
 13 39  1  0
 14 40  1  0
 14 41  1  0
 15 42  1  0
 18 43  1  0
 18 44  1  0
 20 45  1  0
 21 46  1  0
 24 47  1  0
 24 48  1  0
M  END
>  <Energy>  (8) 
11.121447923574166

>  <compound_id>  (8) 
93838

>  <target_id>  (8) 
1

>  <reference_id>  (8) 
186

>  <inspiration_ids>  (8) 
[97, 186]

>  <energy_score>  (8) 
-43.59680318486892

>  <distance_score>  (8) 
5.651250006645725

>  <path>  (8) 
/opt/xchem-fragalysis-2/maxwin/BulkDock/SCRATCH/511016/C93838-P186/C93838-P186.minimised.mol

>  <scratch_subdir>  (8) 
/opt/xchem-fragalysis-2/maxwin/BulkDock/SCRATCH/511016/C93838-P186

>  <fragmenstein_runtime>  (8) 
35.337770223617554

>  <fragmenstein_outcome>  (8) 
too moved

>  <fragmenstein_mode>  (8) 
expansion

>  <fragmenstein_error>  (8) 


$$$$
C93842-P97
     RDKit          3D

 48 49  0  0  0  0  0  0  0  0999 V2000
   12.6558   -4.7330   23.3226 C   0  0  0  0  0  0  0  0  0  0  0  0
   12.1675   -4.0978   24.6592 C   0  0  0  0  0  0  0  0  0  0  0  0
   11.3924   -4.9724   25.8866 C   0  0  0  0  0  0  0  0  0  0  0  0
   12.5573   -5.5588   26.7295 C   0  0  0  0  0  0  0  0  0  0  0  0
   10.7019   -6.1171   25.3790 O   0  0  0  0  0  0  0  0  0  0  0  0
   10.5075   -4.0847   27.0688 C   0  0  0  0  0  0  0  0  0  0  0  0
   10.8603   -2.9785   27.3070 O   0  0  0  0  0  0  0  0  0  0  0  0
    9.3582   -4.9837   27.7581 N   0  0  0  0  0  0  0  0  0  0  0  0
    8.4515   -4.6922   29.0047 C   0  0  0  0  0  0  0  0  0  0  0  0
    7.0913   -3.8883   29.0177 C   0  0  0  0  0  0  0  0  0  0  0  0
    6.6057   -4.7521   30.2415 C   0  0  0  0  0  0  0  0  0  0  0  0
    5.0804   -4.8264   30.5763 C   0  0  0  0  0  0  0  0  0  0  0  0
    4.5414   -3.4034   30.7807 C   0  0  0  0  0  0  0  0  0  0  0  0
    3.1239   -3.3238   31.0473 N   0  0  0  0  0  0  0  0  0  0  0  0
    1.9052   -3.4770   30.0898 C   0  0  0  0  0  0  0  0  0  0  0  0
    1.8634   -3.7669   28.9580 O   0  0  0  0  0  0  0  0  0  0  0  0
    0.6252   -3.1341   30.8833 C   0  0  0  0  0  0  0  0  0  0  0  0
   -0.1853   -2.0939   30.1570 C   0  0  0  0  0  0  0  0  0  0  0  0
   -0.8708   -2.1750   28.9583 C   0  0  0  0  0  0  0  0  0  0  0  0
   -1.4735   -0.9264   28.6371 C   0  0  0  0  0  0  0  0  0  0  0  0
   -1.3255    0.0570   29.5206 N   0  0  0  0  0  0  0  0  0  0  0  0
   -0.3876   -0.5044   30.7695 S   0  0  0  0  0  0  0  0  0  0  0  0
    7.5258   -5.8687   29.5470 C   0  0  0  0  0  0  0  0  0  0  0  0
   12.5046   -5.8142   23.3331 H   0  0  0  0  0  0  0  0  0  0  0  0
   13.7301   -4.5524   23.2070 H   0  0  0  0  0  0  0  0  0  0  0  0
   12.1686   -4.2841   22.4589 H   0  0  0  0  0  0  0  0  0  0  0  0
   11.5799   -3.2008   24.4490 H   0  0  0  0  0  0  0  0  0  0  0  0
   13.0570   -3.6627   25.1391 H   0  0  0  0  0  0  0  0  0  0  0  0
   13.1956   -6.2054   26.1169 H   0  0  0  0  0  0  0  0  0  0  0  0
   12.1771   -6.1751   27.5530 H   0  0  0  0  0  0  0  0  0  0  0  0
   13.1734   -4.7676   27.1696 H   0  0  0  0  0  0  0  0  0  0  0  0
   10.8036   -6.8364   26.0216 H   0  0  0  0  0  0  0  0  0  0  0  0
    9.2621   -5.8566   27.2559 H   0  0  0  0  0  0  0  0  0  0  0  0
    9.1311   -4.3263   29.7893 H   0  0  0  0  0  0  0  0  0  0  0  0
    7.2009   -2.8187   29.2206 H   0  0  0  0  0  0  0  0  0  0  0  0
    6.4674   -4.0066   28.1410 H   0  0  0  0  0  0  0  0  0  0  0  0
    7.0913   -4.4074   31.1709 H   0  0  0  0  0  0  0  0  0  0  0  0
    4.5457   -5.3141   29.7748 H   0  0  0  0  0  0  0  0  0  0  0  0
    4.9396   -5.4138   31.4883 H   0  0  0  0  0  0  0  0  0  0  0  0
    5.0598   -2.9144   31.6122 H   0  0  0  0  0  0  0  0  0  0  0  0
    4.7161   -2.8072   29.8790 H   0  0  0  0  0  0  0  0  0  0  0  0
    2.8077   -2.9800   31.9457 H   0  0  0  0  0  0  0  0  0  0  0  0
    0.0423   -4.0590   30.9711 H   0  0  0  0  0  0  0  0  0  0  0  0
    0.8507   -2.8055   31.9021 H   0  0  0  0  0  0  0  0  0  0  0  0
   -0.9060   -3.0564   28.3308 H   0  0  0  0  0  0  0  0  0  0  0  0
   -2.0475   -0.7151   27.7442 H   0  0  0  0  0  0  0  0  0  0  0  0
    7.0195   -6.4457   28.7654 H   0  0  0  0  0  0  0  0  0  0  0  0
    8.0110   -6.5614   30.2401 H   0  0  0  0  0  0  0  0  0  0  0  0
  1  2  1  0
  2  3  1  0
  3  4  1  0
  3  5  1  0
  3  6  1  0
  6  7  2  0
  6  8  1  0
  8  9  1  0
  9 10  1  0
 10 11  1  0
 11 12  1  0
 12 13  1  0
 13 14  1  0
 14 15  1  0
 15 16  2  0
 15 17  1  0
 17 18  1  0
 18 19  2  0
 19 20  1  0
 20 21  2  0
 21 22  1  0
 11 23  1  0
 23  9  1  0
 22 18  1  0
  1 24  1  0
  1 25  1  0
  1 26  1  0
  2 27  1  0
  2 28  1  0
  4 29  1  0
  4 30  1  0
  4 31  1  0
  5 32  1  0
  8 33  1  0
  9 34  1  0
 10 35  1  0
 10 36  1  0
 11 37  1  0
 12 38  1  0
 12 39  1  0
 13 40  1  0
 13 41  1  0
 14 42  1  0
 17 43  1  0
 17 44  1  0
 19 45  1  0
 20 46  1  0
 23 47  1  0
 23 48  1  0
M  END
>  <Energy>  (9) 
113.27970237662917

>  <compound_id>  (9) 
93842

>  <target_id>  (9) 
1

>  <reference_id>  (9) 
97

>  <inspiration_ids>  (9) 
[97, 186]

>  <energy_score>  (9) 
14.592696003147466

>  <distance_score>  (9) 
6.613984351618251

>  <path>  (9) 
/opt/xchem-fragalysis-2/maxwin/BulkDock/SCRATCH/511016/C93842-P97/C93842-P97.minimised.mol

>  <scratch_subdir>  (9) 
/opt/xchem-fragalysis-2/maxwin/BulkDock/SCRATCH/511016/C93842-P97

>  <fragmenstein_runtime>  (9) 
17.59326982498169

>  <fragmenstein_outcome>  (9) 
too moved

>  <fragmenstein_mode>  (9) 
expansion

>  <fragmenstein_error>  (9) 


$$$$
C93842-P186
     RDKit          3D

 48 49  0  0  0  0  0  0  0  0999 V2000
   12.6399   -4.7126   22.8920 C   0  0  0  0  0  0  0  0  0  0  0  0
   11.9961   -4.0422   24.1362 C   0  0  0  0  0  0  0  0  0  0  0  0
   11.4002   -4.8295   25.4658 C   0  0  0  0  0  0  0  0  0  0  0  0
   12.6025   -5.0585   26.4072 C   0  0  0  0  0  0  0  0  0  0  0  0
   10.9530   -6.1308   25.1183 O   0  0  0  0  0  0  0  0  0  0  0  0
   10.3255   -3.8717   26.3915 C   0  0  0  0  0  0  0  0  0  0  0  0
   10.6448   -2.7461   26.5767 O   0  0  0  0  0  0  0  0  0  0  0  0
    9.0616   -4.6965   26.9425 N   0  0  0  0  0  0  0  0  0  0  0  0
    7.8565   -4.2322   27.7815 C   0  0  0  0  0  0  0  0  0  0  0  0
    6.3739   -4.6371   27.3598 C   0  0  0  0  0  0  0  0  0  0  0  0
    5.9496   -4.4419   28.8557 C   0  0  0  0  0  0  0  0  0  0  0  0
    4.6515   -5.1285   29.3419 C   0  0  0  0  0  0  0  0  0  0  0  0
    3.4136   -4.5864   28.6233 C   0  0  0  0  0  0  0  0  0  0  0  0
    2.6968   -3.6231   29.4248 N   0  0  0  0  0  0  0  0  0  0  0  0
    1.5512   -3.8223   30.4596 C   0  0  0  0  0  0  0  0  0  0  0  0
    1.0682   -4.8030   30.8756 O   0  0  0  0  0  0  0  0  0  0  0  0
    1.1193   -2.4363   30.9503 C   0  0  0  0  0  0  0  0  0  0  0  0
    0.0997   -1.8093   30.0535 C   0  0  0  0  0  0  0  0  0  0  0  0
   -0.6097   -2.2949   28.9716 C   0  0  0  0  0  0  0  0  0  0  0  0
   -1.4270   -1.2724   28.4162 C   0  0  0  0  0  0  0  0  0  0  0  0
   -1.4101   -0.0891   29.0215 N   0  0  0  0  0  0  0  0  0  0  0  0
   -0.3673   -0.1731   30.3033 S   0  0  0  0  0  0  0  0  0  0  0  0
    7.4560   -4.9528   29.1233 C   0  0  0  0  0  0  0  0  0  0  0  0
   11.9023   -5.0511   22.1708 H   0  0  0  0  0  0  0  0  0  0  0  0
   13.2802   -3.9896   22.3759 H   0  0  0  0  0  0  0  0  0  0  0  0
   13.2593   -5.5597   23.1988 H   0  0  0  0  0  0  0  0  0  0  0  0
   11.1801   -3.4200   23.7999 H   0  0  0  0  0  0  0  0  0  0  0  0
   12.7286   -3.3182   24.5209 H   0  0  0  0  0  0  0  0  0  0  0  0
   12.2882   -5.5834   27.3171 H   0  0  0  0  0  0  0  0  0  0  0  0
   13.0645   -4.1144   26.7140 H   0  0  0  0  0  0  0  0  0  0  0  0
   13.3636   -5.6830   25.9263 H   0  0  0  0  0  0  0  0  0  0  0  0
   10.8722   -6.6347   25.9451 H   0  0  0  0  0  0  0  0  0  0  0  0
    9.0468   -5.6182   26.5214 H   0  0  0  0  0  0  0  0  0  0  0  0
    7.9558   -3.1451   27.9169 H   0  0  0  0  0  0  0  0  0  0  0  0
    5.9032   -3.9559   26.6448 H   0  0  0  0  0  0  0  0  0  0  0  0
    6.2752   -5.6625   26.9823 H   0  0  0  0  0  0  0  0  0  0  0  0
    5.8622   -3.3729   29.1127 H   0  0  0  0  0  0  0  0  0  0  0  0
    4.7437   -6.1991   29.1328 H   0  0  0  0  0  0  0  0  0  0  0  0
    4.5732   -4.9547   30.4176 H   0  0  0  0  0  0  0  0  0  0  0  0
    2.7167   -5.4143   28.4554 H   0  0  0  0  0  0  0  0  0  0  0  0
    3.6424   -4.1214   27.6610 H   0  0  0  0  0  0  0  0  0  0  0  0
    2.9231   -2.6360   29.3548 H   0  0  0  0  0  0  0  0  0  0  0  0
    2.0016   -1.7944   31.0559 H   0  0  0  0  0  0  0  0  0  0  0  0
    0.7002   -2.5599   31.9569 H   0  0  0  0  0  0  0  0  0  0  0  0
   -0.5441   -3.3027   28.5786 H   0  0  0  0  0  0  0  0  0  0  0  0
   -2.0710   -1.3906   27.5546 H   0  0  0  0  0  0  0  0  0  0  0  0
    7.5726   -6.0431   29.1119 H   0  0  0  0  0  0  0  0  0  0  0  0
    7.9235   -4.5533   30.0271 H   0  0  0  0  0  0  0  0  0  0  0  0
  1  2  1  0
  2  3  1  0
  3  4  1  0
  3  5  1  0
  3  6  1  0
  6  7  2  0
  6  8  1  0
  8  9  1  0
  9 10  1  0
 10 11  1  0
 11 12  1  0
 12 13  1  0
 13 14  1  0
 14 15  1  0
 15 16  2  0
 15 17  1  0
 17 18  1  0
 18 19  2  0
 19 20  1  0
 20 21  2  0
 21 22  1  0
 11 23  1  0
 23  9  1  0
 22 18  1  0
  1 24  1  0
  1 25  1  0
  1 26  1  0
  2 27  1  0
  2 28  1  0
  4 29  1  0
  4 30  1  0
  4 31  1  0
  5 32  1  0
  8 33  1  0
  9 34  1  0
 10 35  1  0
 10 36  1  0
 11 37  1  0
 12 38  1  0
 12 39  1  0
 13 40  1  0
 13 41  1  0
 14 42  1  0
 17 43  1  0
 17 44  1  0
 19 45  1  0
 20 46  1  0
 23 47  1  0
 23 48  1  0
M  END
>  <Energy>  (10) 
102.54815374670471

>  <compound_id>  (10) 
93842

>  <target_id>  (10) 
1

>  <reference_id>  (10) 
186

>  <inspiration_ids>  (10) 
[97, 186]

>  <energy_score>  (10) 
3.8611473732271406

>  <distance_score>  (10) 
6.568518122292758

>  <path>  (10) 
/opt/xchem-fragalysis-2/maxwin/BulkDock/SCRATCH/511016/C93842-P186/C93842-P186.minimised.mol

>  <scratch_subdir>  (10) 
/opt/xchem-fragalysis-2/maxwin/BulkDock/SCRATCH/511016/C93842-P186

>  <fragmenstein_runtime>  (10) 
20.935864686965942

>  <fragmenstein_outcome>  (10) 
too moved

>  <fragmenstein_mode>  (10) 
expansion

>  <fragmenstein_error>  (10) 


$$$$
C93843-P97
     RDKit          3D

 50 51  0  0  0  0  0  0  0  0999 V2000
    7.0138    1.7005   21.2420 C   0  0  0  0  0  0  0  0  0  0  0  0
    6.3366   -0.0282   20.8945 C   0  0  0  0  0  0  0  0  0  0  0  0
    5.2527   -1.4017   21.9766 C   0  0  0  0  0  0  0  0  0  0  0  0
    5.6040   -2.6035   21.2596 C   0  0  0  0  0  0  0  0  0  0  0  0
    4.5947   -1.4790   23.7723 C   0  0  0  0  0  0  0  0  0  0  0  0
    3.4615   -2.1988   24.4317 C   0  0  0  0  0  0  0  0  0  0  0  0
    2.8224   -2.8558   23.6615 O   0  0  0  0  0  0  0  0  0  0  0  0
    3.3006   -1.9938   25.9391 N   0  0  0  0  0  0  0  0  0  0  0  0
    2.2342   -2.5211   26.9134 C   0  0  0  0  0  0  0  0  0  0  0  0
    2.4010   -2.9266   28.4169 C   0  0  0  0  0  0  0  0  0  0  0  0
    0.8252   -2.6922   28.5621 C   0  0  0  0  0  0  0  0  0  0  0  0
   -0.4390   -3.6707   28.2903 C   0  0  0  0  0  0  0  0  0  0  0  0
   -0.1944   -5.0950   27.7004 C   0  0  0  0  0  0  0  0  0  0  0  0
   -1.1594   -5.9608   26.9294 N   0  0  0  0  0  0  0  0  0  0  0  0
   -1.0980   -6.4827   25.5525 C   0  0  0  0  0  0  0  0  0  0  0  0
   -0.3055   -6.2829   24.6781 O   0  0  0  0  0  0  0  0  0  0  0  0
   -2.1598   -7.4795   25.1046 C   0  0  0  0  0  0  0  0  0  0  0  0
   -2.7438   -7.1777   23.7286 C   0  0  0  0  0  0  0  0  0  0  0  0
   -3.8806   -7.7336   23.1693 C   0  0  0  0  0  0  0  0  0  0  0  0
   -4.2879   -6.9917   22.0254 C   0  0  0  0  0  0  0  0  0  0  0  0
   -3.5359   -5.9579   21.6711 N   0  0  0  0  0  0  0  0  0  0  0  0
   -2.2241   -5.9052   22.6724 S   0  0  0  0  0  0  0  0  0  0  0  0
    1.1477   -1.5565   27.5018 C   0  0  0  0  0  0  0  0  0  0  0  0
    8.0080    1.7960   21.7204 H   0  0  0  0  0  0  0  0  0  0  0  0
    6.2675    2.3824   21.6278 H   0  0  0  0  0  0  0  0  0  0  0  0
    7.1263    2.4803   20.4637 H   0  0  0  0  0  0  0  0  0  0  0  0
    6.2627    0.1339   19.8243 H   0  0  0  0  0  0  0  0  0  0  0  0
    7.1117   -0.7748   20.7763 H   0  0  0  0  0  0  0  0  0  0  0  0
    5.9780   -1.6358   22.6862 H   0  0  0  0  0  0  0  0  0  0  0  0
    6.2880   -2.2457   20.6053 H   0  0  0  0  0  0  0  0  0  0  0  0
    4.9895   -3.1502   20.5717 H   0  0  0  0  0  0  0  0  0  0  0  0
    6.1452   -3.1339   22.0094 H   0  0  0  0  0  0  0  0  0  0  0  0
    5.4090   -1.9470   24.3606 H   0  0  0  0  0  0  0  0  0  0  0  0
    4.3936   -0.4729   24.1747 H   0  0  0  0  0  0  0  0  0  0  0  0
    4.0702   -1.4365   26.2856 H   0  0  0  0  0  0  0  0  0  0  0  0
    1.8619   -3.4216   26.4743 H   0  0  0  0  0  0  0  0  0  0  0  0
    2.6510   -3.9357   28.7211 H   0  0  0  0  0  0  0  0  0  0  0  0
    3.0212   -2.2351   29.0022 H   0  0  0  0  0  0  0  0  0  0  0  0
    0.5935   -2.2451   29.5418 H   0  0  0  0  0  0  0  0  0  0  0  0
   -1.1506   -3.1017   27.6953 H   0  0  0  0  0  0  0  0  0  0  0  0
   -0.9375   -3.8132   29.2583 H   0  0  0  0  0  0  0  0  0  0  0  0
    0.6386   -4.9959   27.0299 H   0  0  0  0  0  0  0  0  0  0  0  0
    0.0718   -5.7249   28.5553 H   0  0  0  0  0  0  0  0  0  0  0  0
   -1.9232   -6.4067   27.4195 H   0  0  0  0  0  0  0  0  0  0  0  0
   -2.9878   -7.4780   25.8048 H   0  0  0  0  0  0  0  0  0  0  0  0
   -1.7139   -8.4776   25.0805 H   0  0  0  0  0  0  0  0  0  0  0  0
   -4.4295   -8.5641   23.5924 H   0  0  0  0  0  0  0  0  0  0  0  0
   -5.1679   -7.1881   21.4261 H   0  0  0  0  0  0  0  0  0  0  0  0
    0.2834   -1.2389   26.9357 H   0  0  0  0  0  0  0  0  0  0  0  0
    1.5733   -0.6415   27.9399 H   0  0  0  0  0  0  0  0  0  0  0  0
  1  2  1  0
  2  3  1  0
  3  4  1  0
  3  5  1  0
  5  6  1  0
  6  7  2  0
  6  8  1  0
  8  9  1  0
  9 10  1  0
 10 11  1  0
 11 12  1  0
 12 13  1  0
 13 14  1  0
 14 15  1  0
 15 16  2  0
 15 17  1  0
 17 18  1  0
 18 19  2  0
 19 20  1  0
 20 21  2  0
 21 22  1  0
 11 23  1  0
 23  9  1  0
 22 18  1  0
  1 24  1  0
  1 25  1  0
  1 26  1  0
  2 27  1  0
  2 28  1  0
  3 29  1  0
  4 30  1  0
  4 31  1  0
  4 32  1  0
  5 33  1  0
  5 34  1  0
  8 35  1  0
  9 36  1  0
 10 37  1  0
 10 38  1  0
 11 39  1  0
 12 40  1  0
 12 41  1  0
 13 42  1  0
 13 43  1  0
 14 44  1  0
 17 45  1  0
 17 46  1  0
 19 47  1  0
 20 48  1  0
 23 49  1  0
 23 50  1  0
M  END
>  <Energy>  (11) 
348.34710545696527

>  <compound_id>  (11) 
93843

>  <target_id>  (11) 
1

>  <reference_id>  (11) 
97

>  <inspiration_ids>  (11) 
[97, 186]

>  <energy_score>  (11) 
304.1225701766876

>  <distance_score>  (11) 
9.06268206745994

>  <path>  (11) 
/opt/xchem-fragalysis-2/maxwin/BulkDock/SCRATCH/511016/C93843-P97/C93843-P97.minimised.mol

>  <scratch_subdir>  (11) 
/opt/xchem-fragalysis-2/maxwin/BulkDock/SCRATCH/511016/C93843-P97

>  <fragmenstein_runtime>  (11) 
38.18579912185669

>  <fragmenstein_outcome>  (11) 
too moved

>  <fragmenstein_mode>  (11) 
expansion

>  <fragmenstein_error>  (11) 


$$$$
C93843-P186
     RDKit          3D

 50 51  0  0  0  0  0  0  0  0999 V2000
   12.6171   -6.8693   22.1520 C   0  0  0  0  0  0  0  0  0  0  0  0
   11.4902   -6.9457   21.0237 C   0  0  0  0  0  0  0  0  0  0  0  0
    9.9715   -5.7826   20.5695 C   0  0  0  0  0  0  0  0  0  0  0  0
   11.4667   -4.7311   21.1021 C   0  0  0  0  0  0  0  0  0  0  0  0
    7.9863   -5.0622   21.1013 C   0  0  0  0  0  0  0  0  0  0  0  0
    7.0642   -5.4016   22.9161 C   0  0  0  0  0  0  0  0  0  0  0  0
    6.7335   -4.3621   23.3959 O   0  0  0  0  0  0  0  0  0  0  0  0
    6.9402   -6.7737   23.5456 N   0  0  0  0  0  0  0  0  0  0  0  0
    6.4966   -7.1991   24.9047 C   0  0  0  0  0  0  0  0  0  0  0  0
    6.6074   -6.1395   26.0477 C   0  0  0  0  0  0  0  0  0  0  0  0
    5.4083   -6.8446   26.7360 C   0  0  0  0  0  0  0  0  0  0  0  0
    4.4913   -6.0250   27.6509 C   0  0  0  0  0  0  0  0  0  0  0  0
    3.7260   -4.9102   26.9465 C   0  0  0  0  0  0  0  0  0  0  0  0
    3.0990   -4.0050   27.8883 N   0  0  0  0  0  0  0  0  0  0  0  0
    2.3091   -4.2641   29.0660 C   0  0  0  0  0  0  0  0  0  0  0  0
    1.9021   -5.2953   29.5247 O   0  0  0  0  0  0  0  0  0  0  0  0
    2.0048   -2.9504   29.8020 C   0  0  0  0  0  0  0  0  0  0  0  0
    0.7483   -2.2957   29.3231 C   0  0  0  0  0  0  0  0  0  0  0  0
   -0.2232   -2.6882   28.4232 C   0  0  0  0  0  0  0  0  0  0  0  0
   -1.2376   -1.6949   28.3167 C   0  0  0  0  0  0  0  0  0  0  0  0
   -1.1050   -0.6115   29.0752 N   0  0  0  0  0  0  0  0  0  0  0  0
    0.2989   -0.7547   29.9434 S   0  0  0  0  0  0  0  0  0  0  0  0
    5.0042   -7.3062   25.2971 C   0  0  0  0  0  0  0  0  0  0  0  0
   12.2456   -6.7424   23.1742 H   0  0  0  0  0  0  0  0  0  0  0  0
   13.1571   -7.8254   22.1402 H   0  0  0  0  0  0  0  0  0  0  0  0
   13.3809   -6.1095   21.9539 H   0  0  0  0  0  0  0  0  0  0  0  0
   12.2070   -6.8647   20.1938 H   0  0  0  0  0  0  0  0  0  0  0  0
   11.0934   -7.9695   21.2041 H   0  0  0  0  0  0  0  0  0  0  0  0
    9.8624   -6.0029   19.5370 H   0  0  0  0  0  0  0  0  0  0  0  0
   11.6691   -4.8109   22.1755 H   0  0  0  0  0  0  0  0  0  0  0  0
   11.4263   -3.6795   20.9892 H   0  0  0  0  0  0  0  0  0  0  0  0
   12.3369   -4.9524   20.4656 H   0  0  0  0  0  0  0  0  0  0  0  0
    7.2063   -5.1737   20.3133 H   0  0  0  0  0  0  0  0  0  0  0  0
    8.0100   -3.9960   21.1112 H   0  0  0  0  0  0  0  0  0  0  0  0
    7.2139   -7.4485   22.8864 H   0  0  0  0  0  0  0  0  0  0  0  0
    7.0454   -8.1156   25.1680 H   0  0  0  0  0  0  0  0  0  0  0  0
    6.4036   -5.1064   25.7543 H   0  0  0  0  0  0  0  0  0  0  0  0
    7.5447   -6.1593   26.6115 H   0  0  0  0  0  0  0  0  0  0  0  0
    5.7737   -7.6953   27.3326 H   0  0  0  0  0  0  0  0  0  0  0  0
    3.7667   -6.6922   28.1256 H   0  0  0  0  0  0  0  0  0  0  0  0
    5.0959   -5.6052   28.4649 H   0  0  0  0  0  0  0  0  0  0  0  0
    4.3739   -4.3045   26.3076 H   0  0  0  0  0  0  0  0  0  0  0  0
    2.9312   -5.3324   26.3250 H   0  0  0  0  0  0  0  0  0  0  0  0
    3.3276   -3.0169   27.8538 H   0  0  0  0  0  0  0  0  0  0  0  0
    2.8583   -2.2678   29.7113 H   0  0  0  0  0  0  0  0  0  0  0  0
    1.9142   -3.1886   30.8697 H   0  0  0  0  0  0  0  0  0  0  0  0
   -0.2265   -3.6201   27.8731 H   0  0  0  0  0  0  0  0  0  0  0  0
   -2.1101   -1.7567   27.6789 H   0  0  0  0  0  0  0  0  0  0  0  0
    4.5653   -8.3055   25.2405 H   0  0  0  0  0  0  0  0  0  0  0  0
    4.3391   -6.6084   24.8092 H   0  0  0  0  0  0  0  0  0  0  0  0
  1  2  1  0
  2  3  1  0
  3  4  1  0
  3  5  1  0
  5  6  1  0
  6  7  2  0
  6  8  1  0
  8  9  1  0
  9 10  1  0
 10 11  1  0
 11 12  1  0
 12 13  1  0
 13 14  1  0
 14 15  1  0
 15 16  2  0
 15 17  1  0
 17 18  1  0
 18 19  2  0
 19 20  1  0
 20 21  2  0
 21 22  1  0
 11 23  1  0
 23  9  1  0
 22 18  1  0
  1 24  1  0
  1 25  1  0
  1 26  1  0
  2 27  1  0
  2 28  1  0
  3 29  1  0
  4 30  1  0
  4 31  1  0
  4 32  1  0
  5 33  1  0
  5 34  1  0
  8 35  1  0
  9 36  1  0
 10 37  1  0
 10 38  1  0
 11 39  1  0
 12 40  1  0
 12 41  1  0
 13 42  1  0
 13 43  1  0
 14 44  1  0
 17 45  1  0
 17 46  1  0
 19 47  1  0
 20 48  1  0
 23 49  1  0
 23 50  1  0
M  END
>  <Energy>  (12) 
370.7462146901791

>  <compound_id>  (12) 
93843

>  <target_id>  (12) 
1

>  <reference_id>  (12) 
186

>  <inspiration_ids>  (12) 
[97, 186]

>  <energy_score>  (12) 
326.5216794098941

>  <distance_score>  (12) 
7.788452498762212

>  <path>  (12) 
/opt/xchem-fragalysis-2/maxwin/BulkDock/SCRATCH/511016/C93843-P186/C93843-P186.minimised.mol

>  <scratch_subdir>  (12) 
/opt/xchem-fragalysis-2/maxwin/BulkDock/SCRATCH/511016/C93843-P186

>  <fragmenstein_runtime>  (12) 
36.9502387046814

>  <fragmenstein_outcome>  (12) 
too moved

>  <fragmenstein_mode>  (12) 
expansion

>  <fragmenstein_error>  (12) 


$$$$
C5924-P124
     RDKit          3D

 51 52  0  0  0  0  0  0  0  0999 V2000
   -9.1075   -9.8424   29.8207 C   0  0  0  0  0  0  0  0  0  0  0  0
   -7.6851   -9.4199   29.4779 C   0  0  0  0  0  0  0  0  0  0  0  0
   -7.4594   -7.6055   29.2827 S   0  0  0  0  0  0  0  0  0  0  0  0
   -7.7923   -6.9818   30.5498 O   0  0  0  0  0  0  0  0  0  0  0  0
   -8.1305   -7.1979   28.0619 O   0  0  0  0  0  0  0  0  0  0  0  0
   -5.6951   -7.3231   29.0185 C   0  0  0  0  0  0  0  0  0  0  0  0
   -5.0143   -5.8959   28.8989 C   0  0  0  0  0  0  0  0  0  0  0  0
   -3.4225   -5.9255   28.4934 C   0  0  0  0  0  0  0  0  0  0  0  0
   -2.3894   -4.8121   28.6137 N   0  0  0  0  0  0  0  0  0  0  0  0
   -1.3743   -4.5255   29.6925 C   0  0  0  0  0  0  0  0  0  0  0  0
   -1.2018   -5.0548   30.7299 O   0  0  0  0  0  0  0  0  0  0  0  0
   -0.6553   -3.2527   29.1329 N   0  0  0  0  0  0  0  0  0  0  0  0
    0.3257   -2.3291   29.7782 C   0  0  0  0  0  0  0  0  0  0  0  0
    1.1691   -1.4591   28.8598 C   0  0  0  0  0  0  0  0  0  0  0  0
    1.4806   -2.3913   27.7262 C   0  0  0  0  0  0  0  0  0  0  0  0
    2.9425   -2.2196   27.3403 N   0  0  0  0  0  0  0  0  0  0  0  0
    3.1338   -0.9926   26.5119 C   0  0  0  0  0  0  0  0  0  0  0  0
    4.5713   -0.7301   26.0327 C   0  0  0  0  0  0  0  0  0  0  0  0
    5.1069   -1.9209   25.2634 C   0  0  0  0  0  0  0  0  0  0  0  0
    5.0097   -3.1448   26.1583 C   0  0  0  0  0  0  0  0  0  0  0  0
    3.5803   -3.3660   26.6936 C   0  0  0  0  0  0  0  0  0  0  0  0
    0.6549   -3.6617   28.2993 C   0  0  0  0  0  0  0  0  0  0  0  0
   -9.8039   -9.5221   29.0396 H   0  0  0  0  0  0  0  0  0  0  0  0
   -9.1709  -10.9299   29.9198 H   0  0  0  0  0  0  0  0  0  0  0  0
   -9.4309   -9.3877   30.7622 H   0  0  0  0  0  0  0  0  0  0  0  0
   -7.0240   -9.7276   30.2889 H   0  0  0  0  0  0  0  0  0  0  0  0
   -7.3834   -9.8739   28.5321 H   0  0  0  0  0  0  0  0  0  0  0  0
   -5.2492   -7.7564   29.9111 H   0  0  0  0  0  0  0  0  0  0  0  0
   -5.4939   -7.8388   28.0842 H   0  0  0  0  0  0  0  0  0  0  0  0
   -5.1122   -5.3732   29.8571 H   0  0  0  0  0  0  0  0  0  0  0  0
   -5.5449   -5.2956   28.1518 H   0  0  0  0  0  0  0  0  0  0  0  0
   -3.3542   -6.2628   27.4551 H   0  0  0  0  0  0  0  0  0  0  0  0
   -2.9874   -6.6874   29.1388 H   0  0  0  0  0  0  0  0  0  0  0  0
   -2.3120   -4.1113   27.8887 H   0  0  0  0  0  0  0  0  0  0  0  0
    0.9374   -2.8899   30.5044 H   0  0  0  0  0  0  0  0  0  0  0  0
   -0.2851   -1.6739   30.4133 H   0  0  0  0  0  0  0  0  0  0  0  0
    0.6011   -0.5896   28.5082 H   0  0  0  0  0  0  0  0  0  0  0  0
    2.0455   -1.0883   29.4030 H   0  0  0  0  0  0  0  0  0  0  0  0
    0.8844   -2.0302   26.8979 H   0  0  0  0  0  0  0  0  0  0  0  0
    2.8178   -0.1200   27.0958 H   0  0  0  0  0  0  0  0  0  0  0  0
    2.4965   -1.0241   25.6259 H   0  0  0  0  0  0  0  0  0  0  0  0
    5.2131   -0.5208   26.8975 H   0  0  0  0  0  0  0  0  0  0  0  0
    4.5881    0.1622   25.3966 H   0  0  0  0  0  0  0  0  0  0  0  0
    6.1443   -1.7494   24.9583 H   0  0  0  0  0  0  0  0  0  0  0  0
    4.5062   -2.0543   24.3586 H   0  0  0  0  0  0  0  0  0  0  0  0
    5.6921   -3.0229   27.0097 H   0  0  0  0  0  0  0  0  0  0  0  0
    5.3413   -4.0390   25.6202 H   0  0  0  0  0  0  0  0  0  0  0  0
    3.6695   -4.1233   27.4691 H   0  0  0  0  0  0  0  0  0  0  0  0
    2.9656   -3.7569   25.8860 H   0  0  0  0  0  0  0  0  0  0  0  0
    0.3103   -4.3193   27.5015 H   0  0  0  0  0  0  0  0  0  0  0  0
    1.2899   -4.2925   28.9424 H   0  0  0  0  0  0  0  0  0  0  0  0
  1  2  1  0
  2  3  1  0
  3  4  2  0
  3  5  2  0
  3  6  1  0
  6  7  1  0
  7  8  1  0
  8  9  1  0
  9 10  1  0
 10 11  2  0
 10 12  1  0
 12 13  1  0
 13 14  1  0
 14 15  1  0
 15 16  1  0
 16 17  1  0
 17 18  1  0
 18 19  1  0
 19 20  1  0
 20 21  1  0
 15 22  1  0
 22 12  1  0
 21 16  1  0
  1 23  1  0
  1 24  1  0
  1 25  1  0
  2 26  1  0
  2 27  1  0
  6 28  1  0
  6 29  1  0
  7 30  1  0
  7 31  1  0
  8 32  1  0
  8 33  1  0
  9 34  1  0
 13 35  1  0
 13 36  1  0
 14 37  1  0
 14 38  1  0
 15 39  1  0
 17 40  1  0
 17 41  1  0
 18 42  1  0
 18 43  1  0
 19 44  1  0
 19 45  1  0
 20 46  1  0
 20 47  1  0
 21 48  1  0
 21 49  1  0
 22 50  1  0
 22 51  1  0
M  END
>  <Energy>  (13) 
49.652079656944615

>  <compound_id>  (13) 
5924

>  <target_id>  (13) 
1

>  <reference_id>  (13) 
124

>  <inspiration_ids>  (13) 
[124, 46]

>  <energy_score>  (13) 
66.88672110411292

>  <distance_score>  (13) 
16.91640900936401

>  <path>  (13) 
/opt/xchem-fragalysis-2/maxwin/BulkDock/SCRATCH/511016/C5924-P124/C5924-P124.minimised.mol

>  <scratch_subdir>  (13) 
/opt/xchem-fragalysis-2/maxwin/BulkDock/SCRATCH/511016/C5924-P124

>  <fragmenstein_runtime>  (13) 
50.41010570526123

>  <fragmenstein_outcome>  (13) 
too moved

>  <fragmenstein_mode>  (13) 
expansion

>  <fragmenstein_error>  (13) 


$$$$
C5924-P46
     RDKit          3D

 51 52  0  0  0  0  0  0  0  0999 V2000
   -2.1219  -18.0882   22.8936 C   0  0  0  0  0  0  0  0  0  0  0  0
   -0.9831  -17.6739   21.9364 C   0  0  0  0  0  0  0  0  0  0  0  0
    0.3341  -16.8206   22.8199 S   0  0  0  0  0  0  0  0  0  0  0  0
   -0.3185  -15.6215   23.3191 O   0  0  0  0  0  0  0  0  0  0  0  0
    0.8490  -17.8507   23.7090 O   0  0  0  0  0  0  0  0  0  0  0  0
    1.7772  -16.2778   21.7392 C   0  0  0  0  0  0  0  0  0  0  0  0
    2.8704  -15.1790   22.3643 C   0  0  0  0  0  0  0  0  0  0  0  0
    3.4253  -13.5245   21.4491 C   0  0  0  0  0  0  0  0  0  0  0  0
    4.8295  -12.9553   20.5153 N   0  0  0  0  0  0  0  0  0  0  0  0
    6.2313  -13.6099   20.2734 C   0  0  0  0  0  0  0  0  0  0  0  0
    6.6870  -14.6223   20.6929 O   0  0  0  0  0  0  0  0  0  0  0  0
    6.7866  -12.6409   19.3105 N   0  0  0  0  0  0  0  0  0  0  0  0
    8.0624  -12.6945   18.4712 C   0  0  0  0  0  0  0  0  0  0  0  0
    9.3618  -12.0081   18.8965 C   0  0  0  0  0  0  0  0  0  0  0  0
    9.0394  -11.8458   20.3326 C   0  0  0  0  0  0  0  0  0  0  0  0
    9.7192  -10.7621   21.0943 N   0  0  0  0  0  0  0  0  0  0  0  0
    9.4155  -10.9570   22.5341 C   0  0  0  0  0  0  0  0  0  0  0  0
   10.0958   -9.9512   23.4633 C   0  0  0  0  0  0  0  0  0  0  0  0
   11.5948   -9.9163   23.2425 C   0  0  0  0  0  0  0  0  0  0  0  0
   11.8769   -9.7386   21.7687 C   0  0  0  0  0  0  0  0  0  0  0  0
   11.1828  -10.8152   20.9197 C   0  0  0  0  0  0  0  0  0  0  0  0
    7.5628  -11.5828   20.0349 C   0  0  0  0  0  0  0  0  0  0  0  0
   -2.5616  -17.2116   23.3793 H   0  0  0  0  0  0  0  0  0  0  0  0
   -1.7516  -18.7597   23.6742 H   0  0  0  0  0  0  0  0  0  0  0  0
   -2.9081  -18.6054   22.3359 H   0  0  0  0  0  0  0  0  0  0  0  0
   -0.5407  -18.5532   21.4599 H   0  0  0  0  0  0  0  0  0  0  0  0
   -1.3577  -16.9923   21.1679 H   0  0  0  0  0  0  0  0  0  0  0  0
    1.3865  -15.9527   20.7872 H   0  0  0  0  0  0  0  0  0  0  0  0
    2.3351  -17.2022   21.5466 H   0  0  0  0  0  0  0  0  0  0  0  0
    3.7408  -15.7346   22.7531 H   0  0  0  0  0  0  0  0  0  0  0  0
    2.4029  -14.7754   23.2331 H   0  0  0  0  0  0  0  0  0  0  0  0
    2.7903  -13.7992   20.6395 H   0  0  0  0  0  0  0  0  0  0  0  0
    3.3023  -12.6821   22.1533 H   0  0  0  0  0  0  0  0  0  0  0  0
    4.7387  -12.1302   19.9362 H   0  0  0  0  0  0  0  0  0  0  0  0
    7.7741  -12.3406   17.4717 H   0  0  0  0  0  0  0  0  0  0  0  0
    8.2664  -13.7686   18.3561 H   0  0  0  0  0  0  0  0  0  0  0  0
    9.4735  -11.0596   18.3642 H   0  0  0  0  0  0  0  0  0  0  0  0
   10.2474  -12.6196   18.7003 H   0  0  0  0  0  0  0  0  0  0  0  0
    9.1645  -12.8123   20.8419 H   0  0  0  0  0  0  0  0  0  0  0  0
    9.7205  -11.9654   22.8493 H   0  0  0  0  0  0  0  0  0  0  0  0
    8.3377  -10.8979   22.7116 H   0  0  0  0  0  0  0  0  0  0  0  0
    9.8895  -10.2250   24.5049 H   0  0  0  0  0  0  0  0  0  0  0  0
    9.6807   -8.9537   23.3266 H   0  0  0  0  0  0  0  0  0  0  0  0
   12.0450  -10.8510   23.5980 H   0  0  0  0  0  0  0  0  0  0  0  0
   12.0440   -9.1013   23.8206 H   0  0  0  0  0  0  0  0  0  0  0  0
   12.9588   -9.7702   21.5984 H   0  0  0  0  0  0  0  0  0  0  0  0
   11.5137   -8.7421   21.4935 H   0  0  0  0  0  0  0  0  0  0  0  0
   11.4357  -10.6631   19.8673 H   0  0  0  0  0  0  0  0  0  0  0  0
   11.5720  -11.8040   21.1979 H   0  0  0  0  0  0  0  0  0  0  0  0
    7.4323  -10.6433   19.4755 H   0  0  0  0  0  0  0  0  0  0  0  0
    7.0514  -11.4496   20.9919 H   0  0  0  0  0  0  0  0  0  0  0  0
  1  2  1  0
  2  3  1  0
  3  4  2  0
  3  5  2  0
  3  6  1  0
  6  7  1  0
  7  8  1  0
  8  9  1  0
  9 10  1  0
 10 11  2  0
 10 12  1  0
 12 13  1  0
 13 14  1  0
 14 15  1  0
 15 16  1  0
 16 17  1  0
 17 18  1  0
 18 19  1  0
 19 20  1  0
 20 21  1  0
 15 22  1  0
 22 12  1  0
 21 16  1  0
  1 23  1  0
  1 24  1  0
  1 25  1  0
  2 26  1  0
  2 27  1  0
  6 28  1  0
  6 29  1  0
  7 30  1  0
  7 31  1  0
  8 32  1  0
  8 33  1  0
  9 34  1  0
 13 35  1  0
 13 36  1  0
 14 37  1  0
 14 38  1  0
 15 39  1  0
 17 40  1  0
 17 41  1  0
 18 42  1  0
 18 43  1  0
 19 44  1  0
 19 45  1  0
 20 46  1  0
 20 47  1  0
 21 48  1  0
 21 49  1  0
 22 50  1  0
 22 51  1  0
M  END
>  <Energy>  (14) 
135.6322811568979

>  <compound_id>  (14) 
5924

>  <target_id>  (14) 
1

>  <reference_id>  (14) 
46

>  <inspiration_ids>  (14) 
[124, 46]

>  <energy_score>  (14) 
152.8669226040704

>  <distance_score>  (14) 
14.455465041543611

>  <path>  (14) 
/opt/xchem-fragalysis-2/maxwin/BulkDock/SCRATCH/511016/C5924-P46/C5924-P46.minimised.mol

>  <scratch_subdir>  (14) 
/opt/xchem-fragalysis-2/maxwin/BulkDock/SCRATCH/511016/C5924-P46

>  <fragmenstein_runtime>  (14) 
46.976667165756226

>  <fragmenstein_outcome>  (14) 
too moved

>  <fragmenstein_mode>  (14) 
expansion

>  <fragmenstein_error>  (14) 


$$$$
C5948-P124
     RDKit          3D

 45 46  0  0  0  0  0  0  0  0999 V2000
   -1.3801   -8.0646   18.9213 C   0  0  0  0  0  0  0  0  0  0  0  0
   -0.8188   -7.6255   17.5535 C   0  0  0  0  0  0  0  0  0  0  0  0
    0.3296   -6.6947   17.6214 O   0  0  0  0  0  0  0  0  0  0  0  0
    0.5134   -5.7778   16.4206 C   0  0  0  0  0  0  0  0  0  0  0  0
    2.0006   -5.1008   16.0581 C   0  0  0  0  0  0  0  0  0  0  0  0
    2.0366   -3.5753   15.3961 C   0  0  0  0  0  0  0  0  0  0  0  0
    1.1049   -2.8794   15.7407 O   0  0  0  0  0  0  0  0  0  0  0  0
    3.1674   -3.2864   14.4343 N   0  0  0  0  0  0  0  0  0  0  0  0
    3.4136   -2.0932   13.5349 C   0  0  0  0  0  0  0  0  0  0  0  0
    4.8558   -1.6061   13.1889 C   0  0  0  0  0  0  0  0  0  0  0  0
    5.4482   -2.1963   12.0464 O   0  0  0  0  0  0  0  0  0  0  0  0
    5.6723   -1.8422   14.4414 C   0  0  0  0  0  0  0  0  0  0  0  0
    7.2809   -1.9205   14.1403 N   0  0  0  0  0  0  0  0  0  0  0  0
    7.9583   -0.5949   13.9835 C   0  0  0  0  0  0  0  0  0  0  0  0
    9.4845   -0.1002   13.9889 C   0  0  0  0  0  0  0  0  0  0  0  0
   10.5162   -1.1738   14.4063 C   0  0  0  0  0  0  0  0  0  0  0  0
    9.8197   -2.3766   15.0080 C   0  0  0  0  0  0  0  0  0  0  0  0
    8.2064   -2.3527   15.1355 C   0  0  0  0  0  0  0  0  0  0  0  0
    4.3595   -2.6823   15.1738 C   0  0  0  0  0  0  0  0  0  0  0  0
   -2.0115   -8.9507   18.8190 H   0  0  0  0  0  0  0  0  0  0  0  0
   -1.9963   -7.2553   19.3203 H   0  0  0  0  0  0  0  0  0  0  0  0
   -0.5750   -8.2404   19.6381 H   0  0  0  0  0  0  0  0  0  0  0  0
   -0.4648   -8.5018   17.0013 H   0  0  0  0  0  0  0  0  0  0  0  0
   -1.6169   -7.1480   16.9746 H   0  0  0  0  0  0  0  0  0  0  0  0
   -0.2068   -4.9666   16.5660 H   0  0  0  0  0  0  0  0  0  0  0  0
    0.2116   -6.3509   15.5362 H   0  0  0  0  0  0  0  0  0  0  0  0
    2.5178   -5.7790   15.3717 H   0  0  0  0  0  0  0  0  0  0  0  0
    2.5767   -5.0484   16.9883 H   0  0  0  0  0  0  0  0  0  0  0  0
    2.8397   -1.2561   13.9661 H   0  0  0  0  0  0  0  0  0  0  0  0
    2.8958   -2.3487   12.6016 H   0  0  0  0  0  0  0  0  0  0  0  0
    4.7608   -0.5591   12.9119 H   0  0  0  0  0  0  0  0  0  0  0  0
    6.3945   -1.9435   12.1187 H   0  0  0  0  0  0  0  0  0  0  0  0
    5.6380   -1.0017   15.1357 H   0  0  0  0  0  0  0  0  0  0  0  0
    7.6896   -0.1020   14.9086 H   0  0  0  0  0  0  0  0  0  0  0  0
    7.6041   -0.2830   13.0294 H   0  0  0  0  0  0  0  0  0  0  0  0
    9.7744    0.3072   13.0091 H   0  0  0  0  0  0  0  0  0  0  0  0
    9.4783    0.8256   14.5505 H   0  0  0  0  0  0  0  0  0  0  0  0
   11.3556   -0.8731   15.0208 H   0  0  0  0  0  0  0  0  0  0  0  0
   11.1249   -1.4860   13.5424 H   0  0  0  0  0  0  0  0  0  0  0  0
   10.2828   -2.4561   15.9923 H   0  0  0  0  0  0  0  0  0  0  0  0
   10.1820   -3.2785   14.5199 H   0  0  0  0  0  0  0  0  0  0  0  0
    8.0191   -1.7118   15.9909 H   0  0  0  0  0  0  0  0  0  0  0  0
    7.8689   -3.3265   15.3574 H   0  0  0  0  0  0  0  0  0  0  0  0
    4.7080   -3.5539   15.6975 H   0  0  0  0  0  0  0  0  0  0  0  0
    3.9375   -2.0075   15.9415 H   0  0  0  0  0  0  0  0  0  0  0  0
  1  2  1  0
  2  3  1  0
  3  4  1  0
  4  5  1  0
  5  6  1  0
  6  7  2  0
  6  8  1  0
  8  9  1  0
  9 10  1  0
 10 11  1  0
 10 12  1  0
 12 13  1  0
 13 14  1  0
 14 15  1  0
 15 16  1  0
 16 17  1  0
 17 18  1  0
 12 19  1  0
 19  8  1  0
 18 13  1  0
  1 20  1  0
  1 21  1  0
  1 22  1  0
  2 23  1  0
  2 24  1  0
  4 25  1  0
  4 26  1  0
  5 27  1  0
  5 28  1  0
  9 29  1  0
  9 30  1  0
 10 31  1  0
 11 32  1  0
 12 33  1  0
 14 34  1  0
 14 35  1  0
 15 36  1  0
 15 37  1  0
 16 38  1  0
 16 39  1  0
 17 40  1  0
 17 41  1  0
 18 42  1  0
 18 43  1  0
 19 44  1  0
 19 45  1  0
M  END
>  <Energy>  (15) 
250.7566082427816

>  <compound_id>  (15) 
5948

>  <target_id>  (15) 
1

>  <reference_id>  (15) 
124

>  <inspiration_ids>  (15) 
[124, 46]

>  <energy_score>  (15) 
148.71730438622762

>  <distance_score>  (15) 
15.421650531112045

>  <path>  (15) 
/opt/xchem-fragalysis-2/maxwin/BulkDock/SCRATCH/511016/C5948-P124/C5948-P124.minimised.mol

>  <scratch_subdir>  (15) 
/opt/xchem-fragalysis-2/maxwin/BulkDock/SCRATCH/511016/C5948-P124

>  <fragmenstein_runtime>  (15) 
22.188889741897583

>  <fragmenstein_outcome>  (15) 
too moved

>  <fragmenstein_mode>  (15) 
expansion

>  <fragmenstein_error>  (15) 


$$$$
C5948-P46
     RDKit          3D

 45 46  0  0  0  0  0  0  0  0999 V2000
    5.0149  -14.3020   18.7653 C   0  0  0  0  0  0  0  0  0  0  0  0
    6.5312  -14.0058   18.7844 C   0  0  0  0  0  0  0  0  0  0  0  0
    7.0277  -13.2701   17.5949 O   0  0  0  0  0  0  0  0  0  0  0  0
    8.5390  -13.0371   17.5774 C   0  0  0  0  0  0  0  0  0  0  0  0
    9.4171  -12.1247   16.3764 C   0  0  0  0  0  0  0  0  0  0  0  0
    9.3838  -10.5883   16.6520 C   0  0  0  0  0  0  0  0  0  0  0  0
    8.8075  -10.3679   17.7053 O   0  0  0  0  0  0  0  0  0  0  0  0
    9.9595   -9.5625   15.5390 N   0  0  0  0  0  0  0  0  0  0  0  0
    9.7943   -7.7112   15.4325 C   0  0  0  0  0  0  0  0  0  0  0  0
   11.1766   -6.4363   15.6871 C   0  0  0  0  0  0  0  0  0  0  0  0
   11.1399   -4.8461   15.2635 O   0  0  0  0  0  0  0  0  0  0  0  0
   12.4146   -7.1507   15.9073 C   0  0  0  0  0  0  0  0  0  0  0  0
   13.2377   -5.5926   16.5674 N   0  0  0  0  0  0  0  0  0  0  0  0
   14.4212   -4.8934   16.0056 C   0  0  0  0  0  0  0  0  0  0  0  0
   14.1649   -3.3976   15.7000 C   0  0  0  0  0  0  0  0  0  0  0  0
   13.8723   -2.5927   16.9537 C   0  0  0  0  0  0  0  0  0  0  0  0
   13.6420   -3.5284   18.1145 C   0  0  0  0  0  0  0  0  0  0  0  0
   12.7628   -4.7225   17.7001 C   0  0  0  0  0  0  0  0  0  0  0  0
   11.7767   -9.1301   15.9201 C   0  0  0  0  0  0  0  0  0  0  0  0
    4.4652  -13.3711   18.6084 H   0  0  0  0  0  0  0  0  0  0  0  0
    4.6955  -14.7714   19.6991 H   0  0  0  0  0  0  0  0  0  0  0  0
    4.7744  -14.9616   17.9257 H   0  0  0  0  0  0  0  0  0  0  0  0
    7.0872  -14.9470   18.8452 H   0  0  0  0  0  0  0  0  0  0  0  0
    6.7699  -13.3939   19.6606 H   0  0  0  0  0  0  0  0  0  0  0  0
    8.8020  -12.6282   18.5592 H   0  0  0  0  0  0  0  0  0  0  0  0
    8.9611  -14.0465   17.5040 H   0  0  0  0  0  0  0  0  0  0  0  0
    8.9562  -12.3251   15.4062 H   0  0  0  0  0  0  0  0  0  0  0  0
   10.4592  -12.4539   16.4102 H   0  0  0  0  0  0  0  0  0  0  0  0
    9.6771   -7.7887   14.4729 H   0  0  0  0  0  0  0  0  0  0  0  0
    8.8249   -7.2761   15.1626 H   0  0  0  0  0  0  0  0  0  0  0  0
   11.0214   -6.0672   16.6411 H   0  0  0  0  0  0  0  0  0  0  0  0
   10.1968   -4.6283   15.3500 H   0  0  0  0  0  0  0  0  0  0  0  0
   12.4709   -7.3187   16.8935 H   0  0  0  0  0  0  0  0  0  0  0  0
   14.9644   -5.4198   15.2355 H   0  0  0  0  0  0  0  0  0  0  0  0
   15.2157   -4.9013   16.7703 H   0  0  0  0  0  0  0  0  0  0  0  0
   15.0383   -2.9708   15.1925 H   0  0  0  0  0  0  0  0  0  0  0  0
   13.3100   -3.2702   15.0271 H   0  0  0  0  0  0  0  0  0  0  0  0
   14.7042   -1.9168   17.1814 H   0  0  0  0  0  0  0  0  0  0  0  0
   12.9912   -1.9608   16.7902 H   0  0  0  0  0  0  0  0  0  0  0  0
   13.1808   -3.0015   18.9505 H   0  0  0  0  0  0  0  0  0  0  0  0
   14.6010   -3.8871   18.5110 H   0  0  0  0  0  0  0  0  0  0  0  0
   12.7449   -5.2635   18.6485 H   0  0  0  0  0  0  0  0  0  0  0  0
   11.7905   -4.3132   17.4470 H   0  0  0  0  0  0  0  0  0  0  0  0
   12.3919   -9.8250   15.3354 H   0  0  0  0  0  0  0  0  0  0  0  0
   11.6173   -9.7124   16.8082 H   0  0  0  0  0  0  0  0  0  0  0  0
  1  2  1  0
  2  3  1  0
  3  4  1  0
  4  5  1  0
  5  6  1  0
  6  7  2  0
  6  8  1  0
  8  9  1  0
  9 10  1  0
 10 11  1  0
 10 12  1  0
 12 13  1  0
 13 14  1  0
 14 15  1  0
 15 16  1  0
 16 17  1  0
 17 18  1  0
 12 19  1  0
 19  8  1  0
 18 13  1  0
  1 20  1  0
  1 21  1  0
  1 22  1  0
  2 23  1  0
  2 24  1  0
  4 25  1  0
  4 26  1  0
  5 27  1  0
  5 28  1  0
  9 29  1  0
  9 30  1  0
 10 31  1  0
 11 32  1  0
 12 33  1  0
 14 34  1  0
 14 35  1  0
 15 36  1  0
 15 37  1  0
 16 38  1  0
 16 39  1  0
 17 40  1  0
 17 41  1  0
 18 42  1  0
 18 43  1  0
 19 44  1  0
 19 45  1  0
M  END
>  <Energy>  (16) 
574.316298530312

>  <compound_id>  (16) 
5948

>  <target_id>  (16) 
1

>  <reference_id>  (16) 
46

>  <inspiration_ids>  (16) 
[124, 46]

>  <energy_score>  (16) 
472.27699467375754

>  <distance_score>  (16) 
14.81046645727137

>  <path>  (16) 
/opt/xchem-fragalysis-2/maxwin/BulkDock/SCRATCH/511016/C5948-P46/C5948-P46.minimised.mol

>  <scratch_subdir>  (16) 
/opt/xchem-fragalysis-2/maxwin/BulkDock/SCRATCH/511016/C5948-P46

>  <fragmenstein_runtime>  (16) 
18.18459129333496

>  <fragmenstein_outcome>  (16) 
too moved

>  <fragmenstein_mode>  (16) 
expansion

>  <fragmenstein_error>  (16) 


$$$$
C5958-P124
     RDKit          3D

 53 55  0  0  0  0  0  0  0  0999 V2000
   -4.4902  -10.2972   21.8441 C   0  0  0  0  0  0  0  0  0  0  0  0
   -4.0097  -10.9179   23.7046 C   0  0  0  0  0  0  0  0  0  0  0  0
   -2.6369   -9.4115   23.0089 C   0  0  0  0  0  0  0  0  0  0  0  0
   -0.8880   -8.2727   23.0256 C   0  0  0  0  0  0  0  0  0  0  0  0
    0.8381   -7.7125   23.5957 N   0  0  0  0  0  0  0  0  0  0  0  0
    2.4186   -8.1754   23.0632 C   0  0  0  0  0  0  0  0  0  0  0  0
    4.1377   -7.3735   23.7041 C   0  0  0  0  0  0  0  0  0  0  0  0
    3.5077   -6.4357   24.6026 C   0  0  0  0  0  0  0  0  0  0  0  0
    1.5901   -6.1673   23.8840 C   0  0  0  0  0  0  0  0  0  0  0  0
   -5.6297  -12.2175   24.1319 N   0  0  0  0  0  0  0  0  0  0  0  0
   -5.9051  -13.6386   25.4930 C   0  0  0  0  0  0  0  0  0  0  0  0
   -4.9826  -13.6693   26.2333 O   0  0  0  0  0  0  0  0  0  0  0  0
   -7.3174  -15.1009   26.1038 C   0  0  0  0  0  0  0  0  0  0  0  0
   -8.7300  -16.3674   26.5950 C   0  0  0  0  0  0  0  0  0  0  0  0
   -9.1883  -18.0706   27.4880 C   0  0  0  0  0  0  0  0  0  0  0  0
  -10.6289  -18.6665   28.8403 N   0  0  0  0  0  0  0  0  0  0  0  0
  -10.5663  -20.5147   29.5261 C   0  0  0  0  0  0  0  0  0  0  0  0
  -10.9661  -20.8699   31.1767 C   0  0  0  0  0  0  0  0  0  0  0  0
  -11.8741  -21.9755   30.9992 C   0  0  0  0  0  0  0  0  0  0  0  0
  -12.4915  -21.6028   29.6815 C   0  0  0  0  0  0  0  0  0  0  0  0
  -12.1877  -20.0292   28.7412 C   0  0  0  0  0  0  0  0  0  0  0  0
   -8.0190  -17.9131   28.0406 N   0  0  0  0  0  0  0  0  0  0  0  0
   -6.7844  -16.8905   27.6708 C   0  0  0  0  0  0  0  0  0  0  0  0
   -6.4110  -15.7438   26.8547 N   0  0  0  0  0  0  0  0  0  0  0  0
   -5.4778  -10.7036   21.5229 H   0  0  0  0  0  0  0  0  0  0  0  0
   -3.7369  -10.6102   21.0968 H   0  0  0  0  0  0  0  0  0  0  0  0
   -4.6406   -9.2154   21.7083 H   0  0  0  0  0  0  0  0  0  0  0  0
   -3.4528  -11.7123   24.1843 H   0  0  0  0  0  0  0  0  0  0  0  0
   -2.2936   -9.8203   22.0228 H   0  0  0  0  0  0  0  0  0  0  0  0
   -3.2586   -8.6138   22.5886 H   0  0  0  0  0  0  0  0  0  0  0  0
   -1.3357   -7.5139   23.6688 H   0  0  0  0  0  0  0  0  0  0  0  0
   -0.7560   -8.1182   21.9563 H   0  0  0  0  0  0  0  0  0  0  0  0
    2.0827   -8.2675   22.0327 H   0  0  0  0  0  0  0  0  0  0  0  0
    2.8406   -9.0987   22.9612 H   0  0  0  0  0  0  0  0  0  0  0  0
    4.9157   -7.0767   23.0184 H   0  0  0  0  0  0  0  0  0  0  0  0
    4.8390   -7.8853   24.4173 H   0  0  0  0  0  0  0  0  0  0  0  0
    4.0726   -5.5015   24.9141 H   0  0  0  0  0  0  0  0  0  0  0  0
    3.9200   -6.6653   25.5899 H   0  0  0  0  0  0  0  0  0  0  0  0
    1.2464   -5.4169   23.1322 H   0  0  0  0  0  0  0  0  0  0  0  0
    1.9411   -5.6209   24.7429 H   0  0  0  0  0  0  0  0  0  0  0  0
   -6.3925  -12.2776   23.4662 H   0  0  0  0  0  0  0  0  0  0  0  0
   -9.6709  -15.9573   26.1757 H   0  0  0  0  0  0  0  0  0  0  0  0
  -10.5605  -21.2958   28.7108 H   0  0  0  0  0  0  0  0  0  0  0  0
   -9.8011  -20.9733   29.9231 H   0  0  0  0  0  0  0  0  0  0  0  0
  -10.1252  -21.1384   31.8153 H   0  0  0  0  0  0  0  0  0  0  0  0
  -11.3972  -20.1999   31.9091 H   0  0  0  0  0  0  0  0  0  0  0  0
  -11.3589  -22.9391   30.9411 H   0  0  0  0  0  0  0  0  0  0  0  0
  -12.5934  -22.0159   31.8235 H   0  0  0  0  0  0  0  0  0  0  0  0
  -12.2645  -22.4029   28.9599 H   0  0  0  0  0  0  0  0  0  0  0  0
  -13.5298  -21.7281   29.9299 H   0  0  0  0  0  0  0  0  0  0  0  0
  -13.0192  -19.4366   28.9787 H   0  0  0  0  0  0  0  0  0  0  0  0
  -12.1986  -20.7060   27.8540 H   0  0  0  0  0  0  0  0  0  0  0  0
   -5.9130  -17.1635   28.2851 H   0  0  0  0  0  0  0  0  0  0  0  0
  1  2  1  0
  2  3  1  0
  3  4  1  0
  4  5  1  0
  5  6  1  0
  6  7  1  0
  7  8  1  0
  8  9  1  0
  2 10  1  0
 10 11  1  0
 11 12  2  0
 11 13  1  0
 13 14  2  0
 14 15  1  0
 15 16  1  0
 16 17  1  0
 17 18  1  0
 18 19  1  0
 19 20  1  0
 20 21  1  0
 15 22  2  0
 22 23  1  0
 23 24  2  0
  9  5  1  0
 24 13  1  0
 21 16  1  0
  1 25  1  0
  1 26  1  0
  1 27  1  0
  2 28  1  0
  3 29  1  0
  3 30  1  0
  4 31  1  0
  4 32  1  0
  6 33  1  0
  6 34  1  0
  7 35  1  0
  7 36  1  0
  8 37  1  0
  8 38  1  0
  9 39  1  0
  9 40  1  0
 10 41  1  0
 14 42  1  0
 17 43  1  0
 17 44  1  0
 18 45  1  0
 18 46  1  0
 19 47  1  0
 19 48  1  0
 20 49  1  0
 20 50  1  0
 21 51  1  0
 21 52  1  0
 23 53  1  0
M  END
>  <Energy>  (17) 
2180.7892713104302

>  <compound_id>  (17) 
5958

>  <target_id>  (17) 
1

>  <reference_id>  (17) 
124

>  <inspiration_ids>  (17) 
[124, 46]

>  <energy_score>  (17) 
2169.175064156674

>  <distance_score>  (17) 
12.682933426013872

>  <path>  (17) 
/opt/xchem-fragalysis-2/maxwin/BulkDock/SCRATCH/511016/C5958-P124/C5958-P124.minimised.mol

>  <scratch_subdir>  (17) 
/opt/xchem-fragalysis-2/maxwin/BulkDock/SCRATCH/511016/C5958-P124

>  <fragmenstein_runtime>  (17) 
31.754515171051025

>  <fragmenstein_outcome>  (17) 
too moved

>  <fragmenstein_mode>  (17) 
expansion

>  <fragmenstein_error>  (17) 


$$$$
C5958-P46
     RDKit          3D

 53 55  0  0  0  0  0  0  0  0999 V2000
    4.4894   -6.6724   17.0409 C   0  0  0  0  0  0  0  0  0  0  0  0
    3.1329   -7.8367   18.0517 C   0  0  0  0  0  0  0  0  0  0  0  0
    5.0260   -7.2490   18.5538 C   0  0  0  0  0  0  0  0  0  0  0  0
    6.6161   -6.0779   18.5663 C   0  0  0  0  0  0  0  0  0  0  0  0
    7.7219   -6.0032   19.7990 N   0  0  0  0  0  0  0  0  0  0  0  0
    9.0833   -6.1170   19.4581 C   0  0  0  0  0  0  0  0  0  0  0  0
    9.9279   -5.6481   20.7205 C   0  0  0  0  0  0  0  0  0  0  0  0
    9.3175   -6.4507   21.7774 C   0  0  0  0  0  0  0  0  0  0  0  0
    7.8843   -6.1338   21.3209 C   0  0  0  0  0  0  0  0  0  0  0  0
    2.2452   -9.3183   19.0777 N   0  0  0  0  0  0  0  0  0  0  0  0
    1.0692   -9.3313   20.6861 C   0  0  0  0  0  0  0  0  0  0  0  0
    0.7217   -8.2483   21.1238 O   0  0  0  0  0  0  0  0  0  0  0  0
    0.3971  -10.8311   21.9602 C   0  0  0  0  0  0  0  0  0  0  0  0
   -0.4090  -12.0929   22.5781 C   0  0  0  0  0  0  0  0  0  0  0  0
   -0.7301  -13.7544   23.7868 C   0  0  0  0  0  0  0  0  0  0  0  0
   -1.8171  -13.6297   25.3466 N   0  0  0  0  0  0  0  0  0  0  0  0
   -2.5414  -14.8865   26.1377 C   0  0  0  0  0  0  0  0  0  0  0  0
   -3.3354  -15.8560   25.2862 C   0  0  0  0  0  0  0  0  0  0  0  0
   -4.6635  -15.2314   24.9350 C   0  0  0  0  0  0  0  0  0  0  0  0
   -4.7043  -13.7426   25.2532 C   0  0  0  0  0  0  0  0  0  0  0  0
   -3.3668  -12.8890   25.3167 C   0  0  0  0  0  0  0  0  0  0  0  0
   -0.9413  -14.7783   23.2085 N   0  0  0  0  0  0  0  0  0  0  0  0
   -0.0285  -14.0028   22.7424 C   0  0  0  0  0  0  0  0  0  0  0  0
    0.7069  -12.1445   22.7052 N   0  0  0  0  0  0  0  0  0  0  0  0
    5.5605   -6.9196   16.7792 H   0  0  0  0  0  0  0  0  0  0  0  0
    4.6539   -5.6000   17.3678 H   0  0  0  0  0  0  0  0  0  0  0  0
    4.0800   -6.2815   16.0477 H   0  0  0  0  0  0  0  0  0  0  0  0
    2.5475   -7.2411   18.7458 H   0  0  0  0  0  0  0  0  0  0  0  0
    5.3357   -7.9827   19.2339 H   0  0  0  0  0  0  0  0  0  0  0  0
    4.5179   -6.3939   18.9870 H   0  0  0  0  0  0  0  0  0  0  0  0
    6.2045   -5.0574   18.5376 H   0  0  0  0  0  0  0  0  0  0  0  0
    7.1857   -6.2106   17.6375 H   0  0  0  0  0  0  0  0  0  0  0  0
    9.1304   -7.1910   19.2453 H   0  0  0  0  0  0  0  0  0  0  0  0
    9.3833   -5.5963   18.5879 H   0  0  0  0  0  0  0  0  0  0  0  0
    9.7266   -4.6106   21.0131 H   0  0  0  0  0  0  0  0  0  0  0  0
   11.0165   -5.7619   20.7140 H   0  0  0  0  0  0  0  0  0  0  0  0
    9.5324   -6.0764   22.7844 H   0  0  0  0  0  0  0  0  0  0  0  0
    9.6978   -7.4665   21.7095 H   0  0  0  0  0  0  0  0  0  0  0  0
    7.9117   -5.1529   21.8058 H   0  0  0  0  0  0  0  0  0  0  0  0
    7.1884   -6.7643   21.8594 H   0  0  0  0  0  0  0  0  0  0  0  0
    2.3850  -10.2560   18.7759 H   0  0  0  0  0  0  0  0  0  0  0  0
   -1.3311  -11.8695   21.7003 H   0  0  0  0  0  0  0  0  0  0  0  0
   -1.9992  -15.2374   27.0279 H   0  0  0  0  0  0  0  0  0  0  0  0
   -3.2935  -14.4747   26.8346 H   0  0  0  0  0  0  0  0  0  0  0  0
   -2.8018  -16.1363   24.3749 H   0  0  0  0  0  0  0  0  0  0  0  0
   -3.5093  -16.7852   25.8417 H   0  0  0  0  0  0  0  0  0  0  0  0
   -4.8859  -15.4118   23.8797 H   0  0  0  0  0  0  0  0  0  0  0  0
   -5.4697  -15.7338   25.4848 H   0  0  0  0  0  0  0  0  0  0  0  0
   -5.1958  -13.6325   26.2326 H   0  0  0  0  0  0  0  0  0  0  0  0
   -5.4123  -13.2524   24.5742 H   0  0  0  0  0  0  0  0  0  0  0  0
   -3.4376  -12.4080   26.2893 H   0  0  0  0  0  0  0  0  0  0  0  0
   -3.4627  -12.0600   24.6577 H   0  0  0  0  0  0  0  0  0  0  0  0
    0.4926  -14.6990   22.0510 H   0  0  0  0  0  0  0  0  0  0  0  0
  1  2  1  0
  2  3  1  0
  3  4  1  0
  4  5  1  0
  5  6  1  0
  6  7  1  0
  7  8  1  0
  8  9  1  0
  2 10  1  0
 10 11  1  0
 11 12  2  0
 11 13  1  0
 13 14  2  0
 14 15  1  0
 15 16  1  0
 16 17  1  0
 17 18  1  0
 18 19  1  0
 19 20  1  0
 20 21  1  0
 15 22  2  0
 22 23  1  0
 23 24  2  0
  9  5  1  0
 24 13  1  0
 21 16  1  0
  1 25  1  0
  1 26  1  0
  1 27  1  0
  2 28  1  0
  3 29  1  0
  3 30  1  0
  4 31  1  0
  4 32  1  0
  6 33  1  0
  6 34  1  0
  7 35  1  0
  7 36  1  0
  8 37  1  0
  8 38  1  0
  9 39  1  0
  9 40  1  0
 10 41  1  0
 14 42  1  0
 17 43  1  0
 17 44  1  0
 18 45  1  0
 18 46  1  0
 19 47  1  0
 19 48  1  0
 20 49  1  0
 20 50  1  0
 21 51  1  0
 21 52  1  0
 23 53  1  0
M  END
>  <Energy>  (18) 
1729.7222685485719

>  <compound_id>  (18) 
5958

>  <target_id>  (18) 
1

>  <reference_id>  (18) 
46

>  <inspiration_ids>  (18) 
[124, 46]

>  <energy_score>  (18) 
1718.1080613947888

>  <distance_score>  (18) 
14.371875845036024

>  <path>  (18) 
/opt/xchem-fragalysis-2/maxwin/BulkDock/SCRATCH/511016/C5958-P46/C5958-P46.minimised.mol

>  <scratch_subdir>  (18) 
/opt/xchem-fragalysis-2/maxwin/BulkDock/SCRATCH/511016/C5958-P46

>  <fragmenstein_runtime>  (18) 
29.16697645187378

>  <fragmenstein_outcome>  (18) 
too moved

>  <fragmenstein_mode>  (18) 
expansion

>  <fragmenstein_error>  (18) 


$$$$
C5959-P124
     RDKit          3D

 53 54  0  0  0  0  0  0  0  0999 V2000
  -10.9448  -15.0184   25.0779 C   0  0  0  0  0  0  0  0  0  0  0  0
  -10.8601  -15.4047   26.5659 C   0  0  0  0  0  0  0  0  0  0  0  0
  -10.4024  -17.1342   26.8277 N   0  0  0  0  0  0  0  0  0  0  0  0
   -8.5250  -16.8793   26.8715 C   0  0  0  0  0  0  0  0  0  0  0  0
   -7.6434  -16.0041   25.6815 C   0  0  0  0  0  0  0  0  0  0  0  0
   -6.1328  -16.4206   25.5646 C   0  0  0  0  0  0  0  0  0  0  0  0
   -7.5524  -14.5250   25.9108 C   0  0  0  0  0  0  0  0  0  0  0  0
   -7.5023  -13.3775   26.0758 N   0  0  0  0  0  0  0  0  0  0  0  0
  -11.6217  -18.0448   28.6046 S   0  0  0  0  0  0  0  0  0  0  0  0
  -12.7550  -18.8707   28.5772 O   0  0  0  0  0  0  0  0  0  0  0  0
  -12.2183  -17.0345   29.4818 O   0  0  0  0  0  0  0  0  0  0  0  0
  -10.8943  -20.1312   29.4376 N   0  0  0  0  0  0  0  0  0  0  0  0
  -11.5757  -21.4087   28.6641 C   0  0  0  0  0  0  0  0  0  0  0  0
  -12.2720  -22.2829   29.6714 C   0  0  0  0  0  0  0  0  0  0  0  0
  -11.3495  -22.2728   30.8071 C   0  0  0  0  0  0  0  0  0  0  0  0
  -11.2820  -23.1219   32.0528 C   0  0  0  0  0  0  0  0  0  0  0  0
  -10.1374  -24.0094   31.8750 N   0  0  0  0  0  0  0  0  0  0  0  0
   -9.4238  -24.3220   33.0648 C   0  0  0  0  0  0  0  0  0  0  0  0
  -10.3422  -25.1276   33.9224 C   0  0  0  0  0  0  0  0  0  0  0  0
  -10.9285  -26.2452   33.0986 C   0  0  0  0  0  0  0  0  0  0  0  0
  -10.3079  -26.4294   31.6901 C   0  0  0  0  0  0  0  0  0  0  0  0
  -10.1633  -25.1140   30.9505 C   0  0  0  0  0  0  0  0  0  0  0  0
  -11.0889  -20.8279   31.0561 C   0  0  0  0  0  0  0  0  0  0  0  0
  -10.7033  -13.9567   24.9551 H   0  0  0  0  0  0  0  0  0  0  0  0
  -11.9583  -15.1411   24.6817 H   0  0  0  0  0  0  0  0  0  0  0  0
  -10.2607  -15.6034   24.4599 H   0  0  0  0  0  0  0  0  0  0  0  0
  -10.0583  -14.7585   26.9136 H   0  0  0  0  0  0  0  0  0  0  0  0
  -11.7726  -15.1738   27.1219 H   0  0  0  0  0  0  0  0  0  0  0  0
   -8.1876  -16.3912   27.7719 H   0  0  0  0  0  0  0  0  0  0  0  0
   -8.1227  -17.8729   26.9816 H   0  0  0  0  0  0  0  0  0  0  0  0
   -8.1295  -16.2130   24.7234 H   0  0  0  0  0  0  0  0  0  0  0  0
   -5.6022  -16.2306   26.5043 H   0  0  0  0  0  0  0  0  0  0  0  0
   -6.0608  -17.4906   25.3461 H   0  0  0  0  0  0  0  0  0  0  0  0
   -5.6297  -15.8718   24.7607 H   0  0  0  0  0  0  0  0  0  0  0  0
  -12.2457  -21.2035   27.8702 H   0  0  0  0  0  0  0  0  0  0  0  0
  -10.7379  -21.9547   28.2096 H   0  0  0  0  0  0  0  0  0  0  0  0
  -13.2424  -21.9196   29.9817 H   0  0  0  0  0  0  0  0  0  0  0  0
  -12.2920  -23.2811   29.2319 H   0  0  0  0  0  0  0  0  0  0  0  0
  -10.5987  -22.6896   30.2060 H   0  0  0  0  0  0  0  0  0  0  0  0
  -12.1585  -23.6381   32.3919 H   0  0  0  0  0  0  0  0  0  0  0  0
  -11.0723  -22.4505   32.8934 H   0  0  0  0  0  0  0  0  0  0  0  0
   -9.0627  -23.3987   33.5070 H   0  0  0  0  0  0  0  0  0  0  0  0
   -8.5320  -24.9078   32.8167 H   0  0  0  0  0  0  0  0  0  0  0  0
  -11.1713  -24.5382   34.3269 H   0  0  0  0  0  0  0  0  0  0  0  0
   -9.7804  -25.4863   34.7719 H   0  0  0  0  0  0  0  0  0  0  0  0
  -11.9798  -26.0275   33.0426 H   0  0  0  0  0  0  0  0  0  0  0  0
  -10.8861  -27.1448   33.6888 H   0  0  0  0  0  0  0  0  0  0  0  0
  -10.8311  -27.1885   31.1052 H   0  0  0  0  0  0  0  0  0  0  0  0
   -9.2946  -26.8318   31.7234 H   0  0  0  0  0  0  0  0  0  0  0  0
  -10.8373  -24.9526   30.1131 H   0  0  0  0  0  0  0  0  0  0  0  0
   -9.1939  -25.1651   30.4392 H   0  0  0  0  0  0  0  0  0  0  0  0
  -10.2119  -20.6573   31.6705 H   0  0  0  0  0  0  0  0  0  0  0  0
  -11.9269  -20.5619   31.6821 H   0  0  0  0  0  0  0  0  0  0  0  0
  1  2  1  0
  2  3  1  0
  3  4  1  0
  4  5  1  0
  5  6  1  0
  5  7  1  0
  7  8  3  0
  3  9  1  0
  9 10  2  0
  9 11  2  0
  9 12  1  0
 12 13  1  0
 13 14  1  0
 14 15  1  0
 15 16  1  0
 16 17  1  0
 17 18  1  0
 18 19  1  0
 19 20  1  0
 20 21  1  0
 21 22  1  0
 15 23  1  0
 23 12  1  0
 22 17  1  0
  1 24  1  0
  1 25  1  0
  1 26  1  0
  2 27  1  0
  2 28  1  0
  4 29  1  0
  4 30  1  0
  5 31  1  0
  6 32  1  0
  6 33  1  0
  6 34  1  0
 13 35  1  0
 13 36  1  0
 14 37  1  0
 14 38  1  0
 15 39  1  0
 16 40  1  0
 16 41  1  0
 18 42  1  0
 18 43  1  0
 19 44  1  0
 19 45  1  0
 20 46  1  0
 20 47  1  0
 21 48  1  0
 21 49  1  0
 22 50  1  0
 22 51  1  0
 23 52  1  0
 23 53  1  0
M  END
>  <Energy>  (19) 
331.90673668719069

>  <compound_id>  (19) 
5959

>  <target_id>  (19) 
1

>  <reference_id>  (19) 
124

>  <inspiration_ids>  (19) 
[124, 46]

>  <energy_score>  (19) 
406.267749705827

>  <distance_score>  (19) 
16.58818565538708

>  <path>  (19) 
/opt/xchem-fragalysis-2/maxwin/BulkDock/SCRATCH/511016/C5959-P124/C5959-P124.minimised.mol

>  <scratch_subdir>  (19) 
/opt/xchem-fragalysis-2/maxwin/BulkDock/SCRATCH/511016/C5959-P124

>  <fragmenstein_runtime>  (19) 
19.82323694229126

>  <fragmenstein_outcome>  (19) 
too moved

>  <fragmenstein_mode>  (19) 
expansion

>  <fragmenstein_error>  (19) 


$$$$
C5959-P46
     RDKit          3D

 53 54  0  0  0  0  0  0  0  0999 V2000
    1.0073  -20.8512   28.6262 C   0  0  0  0  0  0  0  0  0  0  0  0
    0.0559  -19.9223   27.8907 C   0  0  0  0  0  0  0  0  0  0  0  0
   -0.4055  -18.8620   28.8118 N   0  0  0  0  0  0  0  0  0  0  0  0
    0.0260  -17.4408   28.4793 C   0  0  0  0  0  0  0  0  0  0  0  0
    1.5541  -16.9889   28.3820 C   0  0  0  0  0  0  0  0  0  0  0  0
    2.4616  -17.7133   27.3783 C   0  0  0  0  0  0  0  0  0  0  0  0
    2.2584  -16.9485   29.6723 C   0  0  0  0  0  0  0  0  0  0  0  0
    2.8044  -16.9706   30.6967 N   0  0  0  0  0  0  0  0  0  0  0  0
   -1.9502  -19.1173   29.5218 S   0  0  0  0  0  0  0  0  0  0  0  0
   -2.1656  -20.5434   29.6178 O   0  0  0  0  0  0  0  0  0  0  0  0
   -2.0358  -18.2562   30.6768 O   0  0  0  0  0  0  0  0  0  0  0  0
   -2.9802  -18.5289   28.3715 N   0  0  0  0  0  0  0  0  0  0  0  0
   -3.2504  -19.1304   27.0585 C   0  0  0  0  0  0  0  0  0  0  0  0
   -4.2641  -18.1789   26.4047 C   0  0  0  0  0  0  0  0  0  0  0  0
   -3.9429  -16.8594   27.0912 C   0  0  0  0  0  0  0  0  0  0  0  0
   -4.8006  -15.6151   26.9004 C   0  0  0  0  0  0  0  0  0  0  0  0
   -6.2524  -15.5561   27.1392 N   0  0  0  0  0  0  0  0  0  0  0  0
   -6.9653  -16.1542   26.0030 C   0  0  0  0  0  0  0  0  0  0  0  0
   -8.4745  -15.9977   26.0936 C   0  0  0  0  0  0  0  0  0  0  0  0
   -8.8952  -14.5454   26.2594 C   0  0  0  0  0  0  0  0  0  0  0  0
   -8.0816  -13.7932   27.3034 C   0  0  0  0  0  0  0  0  0  0  0  0
   -6.5985  -14.1189   27.2355 C   0  0  0  0  0  0  0  0  0  0  0  0
   -3.6965  -17.2554   28.5382 C   0  0  0  0  0  0  0  0  0  0  0  0
    0.4944  -21.3777   29.4376 H   0  0  0  0  0  0  0  0  0  0  0  0
    1.8434  -20.3041   29.0713 H   0  0  0  0  0  0  0  0  0  0  0  0
    1.4121  -21.6014   27.9400 H   0  0  0  0  0  0  0  0  0  0  0  0
    0.5367  -19.4961   27.0086 H   0  0  0  0  0  0  0  0  0  0  0  0
   -0.7811  -20.5088   27.4998 H   0  0  0  0  0  0  0  0  0  0  0  0
   -0.4361  -17.2005   27.5121 H   0  0  0  0  0  0  0  0  0  0  0  0
   -0.4407  -16.7806   29.2218 H   0  0  0  0  0  0  0  0  0  0  0  0
    1.4630  -15.9418   28.0864 H   0  0  0  0  0  0  0  0  0  0  0  0
    3.3787  -17.1524   27.2003 H   0  0  0  0  0  0  0  0  0  0  0  0
    2.7767  -18.6892   27.7615 H   0  0  0  0  0  0  0  0  0  0  0  0
    1.9537  -17.8932   26.4284 H   0  0  0  0  0  0  0  0  0  0  0  0
   -2.3331  -19.1385   26.4621 H   0  0  0  0  0  0  0  0  0  0  0  0
   -3.6409  -20.1478   27.1301 H   0  0  0  0  0  0  0  0  0  0  0  0
   -4.1267  -18.1301   25.3199 H   0  0  0  0  0  0  0  0  0  0  0  0
   -5.2774  -18.5234   26.5917 H   0  0  0  0  0  0  0  0  0  0  0  0
   -2.9570  -16.5623   26.6919 H   0  0  0  0  0  0  0  0  0  0  0  0
   -4.3288  -14.8681   27.5575 H   0  0  0  0  0  0  0  0  0  0  0  0
   -4.5953  -15.2444   25.8841 H   0  0  0  0  0  0  0  0  0  0  0  0
   -6.6317  -15.7098   25.0548 H   0  0  0  0  0  0  0  0  0  0  0  0
   -6.7390  -17.2167   25.9429 H   0  0  0  0  0  0  0  0  0  0  0  0
   -8.9373  -16.3902   25.1803 H   0  0  0  0  0  0  0  0  0  0  0  0
   -8.8368  -16.6199   26.9043 H   0  0  0  0  0  0  0  0  0  0  0  0
   -8.7572  -14.0406   25.2938 H   0  0  0  0  0  0  0  0  0  0  0  0
   -9.9653  -14.4777   26.4846 H   0  0  0  0  0  0  0  0  0  0  0  0
   -8.2167  -12.7161   27.1394 H   0  0  0  0  0  0  0  0  0  0  0  0
   -8.4424  -13.9585   28.3168 H   0  0  0  0  0  0  0  0  0  0  0  0
   -6.1838  -13.5767   26.3729 H   0  0  0  0  0  0  0  0  0  0  0  0
   -6.1248  -13.6911   28.1288 H   0  0  0  0  0  0  0  0  0  0  0  0
   -3.0726  -16.5047   29.0331 H   0  0  0  0  0  0  0  0  0  0  0  0
   -4.6169  -17.3830   29.1093 H   0  0  0  0  0  0  0  0  0  0  0  0
  1  2  1  0
  2  3  1  0
  3  4  1  0
  4  5  1  0
  5  6  1  0
  5  7  1  0
  7  8  3  0
  3  9  1  0
  9 10  2  0
  9 11  2  0
  9 12  1  0
 12 13  1  0
 13 14  1  0
 14 15  1  0
 15 16  1  0
 16 17  1  0
 17 18  1  0
 18 19  1  0
 19 20  1  0
 20 21  1  0
 21 22  1  0
 15 23  1  0
 23 12  1  0
 22 17  1  0
  1 24  1  0
  1 25  1  0
  1 26  1  0
  2 27  1  0
  2 28  1  0
  4 29  1  0
  4 30  1  0
  5 31  1  0
  6 32  1  0
  6 33  1  0
  6 34  1  0
 13 35  1  0
 13 36  1  0
 14 37  1  0
 14 38  1  0
 15 39  1  0
 16 40  1  0
 16 41  1  0
 18 42  1  0
 18 43  1  0
 19 44  1  0
 19 45  1  0
 20 46  1  0
 20 47  1  0
 21 48  1  0
 21 49  1  0
 22 50  1  0
 22 51  1  0
 23 52  1  0
 23 53  1  0
M  END
>  <Energy>  (20) 
-124.16772322063335

>  <compound_id>  (20) 
5959

>  <target_id>  (20) 
1

>  <reference_id>  (20) 
46

>  <inspiration_ids>  (20) 
[124, 46]

>  <energy_score>  (20) 
-49.80671020200152

>  <distance_score>  (20) 
16.482690383820355

>  <path>  (20) 
/opt/xchem-fragalysis-2/maxwin/BulkDock/SCRATCH/511016/C5959-P46/C5959-P46.minimised.mol

>  <scratch_subdir>  (20) 
/opt/xchem-fragalysis-2/maxwin/BulkDock/SCRATCH/511016/C5959-P46

>  <fragmenstein_runtime>  (20) 
39.10122776031494

>  <fragmenstein_outcome>  (20) 
too moved

>  <fragmenstein_mode>  (20) 
expansion

>  <fragmenstein_error>  (20) 


$$$$
C5960-P124
     RDKit          3D

 51 52  0  0  0  0  0  0  0  0999 V2000
  -10.0495  -19.4002   32.4642 O   0  0  0  0  0  0  0  0  0  0  0  0
  -10.2817  -20.7816   32.4909 S   0  0  0  0  0  0  0  0  0  0  0  0
  -11.3344  -20.8151   33.5066 O   0  0  0  0  0  0  0  0  0  0  0  0
   -8.1944  -21.1546   33.0182 C   0  0  0  0  0  0  0  0  0  0  0  0
   -7.1960  -19.6542   33.5099 C   0  0  0  0  0  0  0  0  0  0  0  0
   -6.5173  -18.1832   32.6605 C   0  0  0  0  0  0  0  0  0  0  0  0
   -5.1799  -18.1672   31.8370 O   0  0  0  0  0  0  0  0  0  0  0  0
   -4.6302  -16.7621   31.3382 C   0  0  0  0  0  0  0  0  0  0  0  0
   -3.0892  -16.6447   30.8752 C   0  0  0  0  0  0  0  0  0  0  0  0
   -2.3090  -16.5654   31.9895 F   0  0  0  0  0  0  0  0  0  0  0  0
   -2.7854  -15.5315   30.1327 F   0  0  0  0  0  0  0  0  0  0  0  0
  -10.9888  -21.6060   31.2540 N   0  0  0  0  0  0  0  0  0  0  0  0
  -10.9971  -23.0140   30.5830 C   0  0  0  0  0  0  0  0  0  0  0  0
  -11.7977  -22.7621   29.3789 C   0  0  0  0  0  0  0  0  0  0  0  0
  -12.8262  -21.9667   30.1678 C   0  0  0  0  0  0  0  0  0  0  0  0
  -12.3740  -21.8516   31.6905 C   0  0  0  0  0  0  0  0  0  0  0  0
  -12.2201  -22.9937   33.0100 C   0  0  0  0  0  0  0  0  0  0  0  0
  -11.2177  -24.0937   32.9929 N   0  0  0  0  0  0  0  0  0  0  0  0
  -11.6141  -25.1729   33.8241 C   0  0  0  0  0  0  0  0  0  0  0  0
  -11.1205  -26.4225   33.1442 C   0  0  0  0  0  0  0  0  0  0  0  0
  -10.1747  -26.2830   31.9408 C   0  0  0  0  0  0  0  0  0  0  0  0
   -9.1537  -25.2118   32.1757 C   0  0  0  0  0  0  0  0  0  0  0  0
   -9.7688  -24.1002   33.0209 C   0  0  0  0  0  0  0  0  0  0  0  0
   -7.6693  -21.6072   32.2066 H   0  0  0  0  0  0  0  0  0  0  0  0
   -8.1138  -21.9612   33.7297 H   0  0  0  0  0  0  0  0  0  0  0  0
   -7.5717  -19.2672   34.4471 H   0  0  0  0  0  0  0  0  0  0  0  0
   -6.2571  -20.1817   33.5014 H   0  0  0  0  0  0  0  0  0  0  0  0
   -6.3781  -17.4451   33.4568 H   0  0  0  0  0  0  0  0  0  0  0  0
   -7.2414  -17.7635   32.0093 H   0  0  0  0  0  0  0  0  0  0  0  0
   -4.8155  -16.0704   32.1644 H   0  0  0  0  0  0  0  0  0  0  0  0
   -5.2579  -16.5116   30.4837 H   0  0  0  0  0  0  0  0  0  0  0  0
   -2.7864  -17.5326   30.3171 H   0  0  0  0  0  0  0  0  0  0  0  0
  -10.2090  -23.7205   30.4788 H   0  0  0  0  0  0  0  0  0  0  0  0
  -11.6040  -23.7720   31.0368 H   0  0  0  0  0  0  0  0  0  0  0  0
  -11.2676  -22.1627   28.6318 H   0  0  0  0  0  0  0  0  0  0  0  0
  -12.1026  -23.6995   28.9173 H   0  0  0  0  0  0  0  0  0  0  0  0
  -12.7171  -21.0492   29.5896 H   0  0  0  0  0  0  0  0  0  0  0  0
  -13.8798  -22.2113   30.1700 H   0  0  0  0  0  0  0  0  0  0  0  0
  -12.9703  -21.0669   32.1309 H   0  0  0  0  0  0  0  0  0  0  0  0
  -12.0958  -22.5322   33.9901 H   0  0  0  0  0  0  0  0  0  0  0  0
  -13.2392  -23.3414   33.1916 H   0  0  0  0  0  0  0  0  0  0  0  0
  -11.1595  -25.1042   34.8132 H   0  0  0  0  0  0  0  0  0  0  0  0
  -12.6828  -25.1614   33.9806 H   0  0  0  0  0  0  0  0  0  0  0  0
  -10.7380  -27.0239   33.9574 H   0  0  0  0  0  0  0  0  0  0  0  0
  -11.9511  -26.9770   32.7766 H   0  0  0  0  0  0  0  0  0  0  0  0
   -9.7397  -27.2365   31.6246 H   0  0  0  0  0  0  0  0  0  0  0  0
  -10.6938  -25.9790   31.0395 H   0  0  0  0  0  0  0  0  0  0  0  0
   -8.8157  -24.8953   31.1968 H   0  0  0  0  0  0  0  0  0  0  0  0
   -8.2545  -25.5943   32.6642 H   0  0  0  0  0  0  0  0  0  0  0  0
   -9.3340  -23.1664   32.7823 H   0  0  0  0  0  0  0  0  0  0  0  0
   -9.3777  -24.3559   34.0008 H   0  0  0  0  0  0  0  0  0  0  0  0
  1  2  2  0
  2  3  2  0
  2  4  1  0
  4  5  1  0
  5  6  1  0
  6  7  1  0
  7  8  1  0
  8  9  1  0
  9 10  1  0
  9 11  1  0
  2 12  1  0
 12 13  1  0
 13 14  1  0
 14 15  1  0
 15 16  1  0
 16 17  1  0
 17 18  1  0
 18 19  1  0
 19 20  1  0
 20 21  1  0
 21 22  1  0
 22 23  1  0
 16 12  1  0
 23 18  1  0
  4 24  1  0
  4 25  1  0
  5 26  1  0
  5 27  1  0
  6 28  1  0
  6 29  1  0
  8 30  1  0
  8 31  1  0
  9 32  1  0
 13 33  1  0
 13 34  1  0
 14 35  1  0
 14 36  1  0
 15 37  1  0
 15 38  1  0
 16 39  1  0
 17 40  1  0
 17 41  1  0
 19 42  1  0
 19 43  1  0
 20 44  1  0
 20 45  1  0
 21 46  1  0
 21 47  1  0
 22 48  1  0
 22 49  1  0
 23 50  1  0
 23 51  1  0
M  END
>  <Energy>  (21) 
367.98874674544129

>  <compound_id>  (21) 
5960

>  <target_id>  (21) 
1

>  <reference_id>  (21) 
124

>  <inspiration_ids>  (21) 
[124, 46]

>  <energy_score>  (21) 
296.34063996370645

>  <distance_score>  (21) 
13.876855808898904

>  <path>  (21) 
/opt/xchem-fragalysis-2/maxwin/BulkDock/SCRATCH/511016/C5960-P124/C5960-P124.minimised.mol

>  <scratch_subdir>  (21) 
/opt/xchem-fragalysis-2/maxwin/BulkDock/SCRATCH/511016/C5960-P124

>  <fragmenstein_runtime>  (21) 
18.443177461624146

>  <fragmenstein_outcome>  (21) 
too moved

>  <fragmenstein_mode>  (21) 
expansion

>  <fragmenstein_error>  (21) 


$$$$
C5960-P46
     RDKit          3D

 51 52  0  0  0  0  0  0  0  0999 V2000
  -10.1009  -22.0547   28.4130 O   0  0  0  0  0  0  0  0  0  0  0  0
  -10.3188  -20.8880   29.2521 S   0  0  0  0  0  0  0  0  0  0  0  0
  -10.0641  -20.8944   30.7023 O   0  0  0  0  0  0  0  0  0  0  0  0
   -8.7050  -19.2206   28.3628 C   0  0  0  0  0  0  0  0  0  0  0  0
   -8.1998  -17.3601   28.0347 C   0  0  0  0  0  0  0  0  0  0  0  0
   -8.3028  -15.8107   27.0293 C   0  0  0  0  0  0  0  0  0  0  0  0
   -7.5740  -14.6155   27.5315 O   0  0  0  0  0  0  0  0  0  0  0  0
   -8.0100  -13.2972   26.9642 C   0  0  0  0  0  0  0  0  0  0  0  0
   -6.9366  -12.2300   26.6510 C   0  0  0  0  0  0  0  0  0  0  0  0
   -6.7259  -12.3059   25.3015 F   0  0  0  0  0  0  0  0  0  0  0  0
   -7.2848  -10.9301   26.8262 F   0  0  0  0  0  0  0  0  0  0  0  0
  -11.6224  -21.5065   30.0591 N   0  0  0  0  0  0  0  0  0  0  0  0
  -11.4250  -22.9598   30.6781 C   0  0  0  0  0  0  0  0  0  0  0  0
  -11.7719  -23.8924   29.5405 C   0  0  0  0  0  0  0  0  0  0  0  0
  -12.8040  -23.0590   28.7912 C   0  0  0  0  0  0  0  0  0  0  0  0
  -12.9294  -21.7433   29.6094 C   0  0  0  0  0  0  0  0  0  0  0  0
  -14.1479  -21.7625   30.8746 C   0  0  0  0  0  0  0  0  0  0  0  0
  -14.1121  -21.3440   32.2835 N   0  0  0  0  0  0  0  0  0  0  0  0
  -15.4157  -21.4894   32.9266 C   0  0  0  0  0  0  0  0  0  0  0  0
  -15.4523  -20.9273   34.3395 C   0  0  0  0  0  0  0  0  0  0  0  0
  -14.3403  -19.9122   34.5881 C   0  0  0  0  0  0  0  0  0  0  0  0
  -12.9590  -20.4763   34.2490 C   0  0  0  0  0  0  0  0  0  0  0  0
  -12.9821  -21.5647   33.1609 C   0  0  0  0  0  0  0  0  0  0  0  0
   -7.8278  -19.7752   28.0631 H   0  0  0  0  0  0  0  0  0  0  0  0
   -9.3963  -18.7653   27.7482 H   0  0  0  0  0  0  0  0  0  0  0  0
   -7.1262  -17.2641   28.1356 H   0  0  0  0  0  0  0  0  0  0  0  0
   -8.7144  -17.5123   27.1001 H   0  0  0  0  0  0  0  0  0  0  0  0
   -9.3511  -15.5576   26.8005 H   0  0  0  0  0  0  0  0  0  0  0  0
   -7.8651  -15.9240   26.0402 H   0  0  0  0  0  0  0  0  0  0  0  0
   -8.5825  -13.5016   26.0526 H   0  0  0  0  0  0  0  0  0  0  0  0
   -8.7009  -12.8910   27.7100 H   0  0  0  0  0  0  0  0  0  0  0  0
   -6.0629  -12.4133   27.2762 H   0  0  0  0  0  0  0  0  0  0  0  0
  -10.5200  -23.1761   31.2342 H   0  0  0  0  0  0  0  0  0  0  0  0
  -12.1630  -23.1256   31.4594 H   0  0  0  0  0  0  0  0  0  0  0  0
  -12.1412  -24.8420   29.9088 H   0  0  0  0  0  0  0  0  0  0  0  0
  -10.9172  -24.1436   28.9068 H   0  0  0  0  0  0  0  0  0  0  0  0
  -12.4225  -22.8444   27.7864 H   0  0  0  0  0  0  0  0  0  0  0  0
  -13.7378  -23.5937   28.6390 H   0  0  0  0  0  0  0  0  0  0  0  0
  -13.0413  -20.8475   29.0190 H   0  0  0  0  0  0  0  0  0  0  0  0
  -14.9327  -22.4742   30.6487 H   0  0  0  0  0  0  0  0  0  0  0  0
  -14.8551  -20.9764   30.5596 H   0  0  0  0  0  0  0  0  0  0  0  0
  -16.1706  -20.9508   32.3390 H   0  0  0  0  0  0  0  0  0  0  0  0
  -15.7333  -22.5383   32.9545 H   0  0  0  0  0  0  0  0  0  0  0  0
  -16.4253  -20.4595   34.5306 H   0  0  0  0  0  0  0  0  0  0  0  0
  -15.3849  -21.7781   35.0178 H   0  0  0  0  0  0  0  0  0  0  0  0
  -14.3515  -19.5091   35.6038 H   0  0  0  0  0  0  0  0  0  0  0  0
  -14.5448  -19.0371   33.9743 H   0  0  0  0  0  0  0  0  0  0  0  0
  -12.3026  -19.6486   33.9559 H   0  0  0  0  0  0  0  0  0  0  0  0
  -12.4785  -20.8769   35.1383 H   0  0  0  0  0  0  0  0  0  0  0  0
  -12.0254  -21.4626   32.6503 H   0  0  0  0  0  0  0  0  0  0  0  0
  -13.0214  -22.5632   33.6114 H   0  0  0  0  0  0  0  0  0  0  0  0
  1  2  2  0
  2  3  2  0
  2  4  1  0
  4  5  1  0
  5  6  1  0
  6  7  1  0
  7  8  1  0
  8  9  1  0
  9 10  1  0
  9 11  1  0
  2 12  1  0
 12 13  1  0
 13 14  1  0
 14 15  1  0
 15 16  1  0
 16 17  1  0
 17 18  1  0
 18 19  1  0
 19 20  1  0
 20 21  1  0
 21 22  1  0
 22 23  1  0
 16 12  1  0
 23 18  1  0
  4 24  1  0
  4 25  1  0
  5 26  1  0
  5 27  1  0
  6 28  1  0
  6 29  1  0
  8 30  1  0
  8 31  1  0
  9 32  1  0
 13 33  1  0
 13 34  1  0
 14 35  1  0
 14 36  1  0
 15 37  1  0
 15 38  1  0
 16 39  1  0
 17 40  1  0
 17 41  1  0
 19 42  1  0
 19 43  1  0
 20 44  1  0
 20 45  1  0
 21 46  1  0
 21 47  1  0
 22 48  1  0
 22 49  1  0
 23 50  1  0
 23 51  1  0
M  END
>  <Energy>  (22) 
560.52575949248251

>  <compound_id>  (22) 
5960

>  <target_id>  (22) 
1

>  <reference_id>  (22) 
46

>  <inspiration_ids>  (22) 
[124, 46]

>  <energy_score>  (22) 
488.87765271073533

>  <distance_score>  (22) 
13.510254701567725

>  <path>  (22) 
/opt/xchem-fragalysis-2/maxwin/BulkDock/SCRATCH/511016/C5960-P46/C5960-P46.minimised.mol

>  <scratch_subdir>  (22) 
/opt/xchem-fragalysis-2/maxwin/BulkDock/SCRATCH/511016/C5960-P46

>  <fragmenstein_runtime>  (22) 
11.815729856491089

>  <fragmenstein_outcome>  (22) 
too moved

>  <fragmenstein_mode>  (22) 
expansion

>  <fragmenstein_error>  (22) 


$$$$
C5961-P124
     RDKit          3D

 51 52  0  0  0  0  0  0  0  0999 V2000
   -8.8817  -15.8290   32.7936 O   0  0  0  0  0  0  0  0  0  0  0  0
   -8.1769  -16.6057   33.7884 S   0  0  0  0  0  0  0  0  0  0  0  0
   -7.8638  -16.1407   35.1417 O   0  0  0  0  0  0  0  0  0  0  0  0
   -6.4541  -16.7264   33.0406 C   0  0  0  0  0  0  0  0  0  0  0  0
   -5.6546  -15.1504   32.9823 C   0  0  0  0  0  0  0  0  0  0  0  0
   -4.2589  -14.7138   32.0907 C   0  0  0  0  0  0  0  0  0  0  0  0
   -3.6278  -13.2725   32.2562 O   0  0  0  0  0  0  0  0  0  0  0  0
   -2.5307  -12.8936   31.2811 C   0  0  0  0  0  0  0  0  0  0  0  0
   -1.6416  -11.5189   31.4880 C   0  0  0  0  0  0  0  0  0  0  0  0
   -1.6958  -10.6429   30.4332 F   0  0  0  0  0  0  0  0  0  0  0  0
   -0.2956  -11.7630   31.6133 F   0  0  0  0  0  0  0  0  0  0  0  0
   -9.3265  -17.7308   34.0941 N   0  0  0  0  0  0  0  0  0  0  0  0
   -9.7238  -19.0178   33.4887 C   0  0  0  0  0  0  0  0  0  0  0  0
  -11.1904  -19.3408   33.9721 C   0  0  0  0  0  0  0  0  0  0  0  0
  -11.5862  -18.2834   34.9766 C   0  0  0  0  0  0  0  0  0  0  0  0
  -13.0675  -17.9350   34.8255 C   0  0  0  0  0  0  0  0  0  0  0  0
  -13.6573  -17.1176   35.8926 N   0  0  0  0  0  0  0  0  0  0  0  0
  -15.1085  -16.9878   35.7128 C   0  0  0  0  0  0  0  0  0  0  0  0
  -15.8982  -18.0971   36.4047 C   0  0  0  0  0  0  0  0  0  0  0  0
  -15.6105  -18.1488   37.9056 C   0  0  0  0  0  0  0  0  0  0  0  0
  -14.3555  -17.3674   38.2867 C   0  0  0  0  0  0  0  0  0  0  0  0
  -13.2737  -17.5633   37.2361 C   0  0  0  0  0  0  0  0  0  0  0  0
  -10.5559  -17.1618   34.8298 C   0  0  0  0  0  0  0  0  0  0  0  0
   -6.3951  -17.2747   32.1044 H   0  0  0  0  0  0  0  0  0  0  0  0
   -6.0353  -17.3436   33.7913 H   0  0  0  0  0  0  0  0  0  0  0  0
   -6.4243  -14.4404   32.6550 H   0  0  0  0  0  0  0  0  0  0  0  0
   -5.4395  -14.8916   34.0268 H   0  0  0  0  0  0  0  0  0  0  0  0
   -3.4582  -15.4088   32.3595 H   0  0  0  0  0  0  0  0  0  0  0  0
   -4.5060  -14.8060   31.0313 H   0  0  0  0  0  0  0  0  0  0  0  0
   -3.0662  -12.8244   30.3313 H   0  0  0  0  0  0  0  0  0  0  0  0
   -1.8527  -13.7500   31.3284 H   0  0  0  0  0  0  0  0  0  0  0  0
   -1.9823  -10.9978   32.3868 H   0  0  0  0  0  0  0  0  0  0  0  0
   -9.7902  -19.3034   32.4723 H   0  0  0  0  0  0  0  0  0  0  0  0
   -8.8525  -19.6422   33.6952 H   0  0  0  0  0  0  0  0  0  0  0  0
  -11.8536  -19.3893   33.1302 H   0  0  0  0  0  0  0  0  0  0  0  0
  -11.4428  -20.3247   34.3654 H   0  0  0  0  0  0  0  0  0  0  0  0
  -11.4547  -18.7167   35.9683 H   0  0  0  0  0  0  0  0  0  0  0  0
  -13.6265  -18.8777   34.7503 H   0  0  0  0  0  0  0  0  0  0  0  0
  -13.2276  -17.4012   33.8855 H   0  0  0  0  0  0  0  0  0  0  0  0
  -15.3766  -16.9441   34.6503 H   0  0  0  0  0  0  0  0  0  0  0  0
  -15.4207  -16.0183   36.1225 H   0  0  0  0  0  0  0  0  0  0  0  0
  -16.9719  -17.9425   36.2453 H   0  0  0  0  0  0  0  0  0  0  0  0
  -15.6625  -19.0645   35.9481 H   0  0  0  0  0  0  0  0  0  0  0  0
  -15.5122  -19.1959   38.2155 H   0  0  0  0  0  0  0  0  0  0  0  0
  -16.4635  -17.7453   38.4642 H   0  0  0  0  0  0  0  0  0  0  0  0
  -13.9981  -17.7018   39.2675 H   0  0  0  0  0  0  0  0  0  0  0  0
  -14.5922  -16.3008   38.3878 H   0  0  0  0  0  0  0  0  0  0  0  0
  -12.3636  -17.0379   37.5457 H   0  0  0  0  0  0  0  0  0  0  0  0
  -13.0536  -18.6299   37.2328 H   0  0  0  0  0  0  0  0  0  0  0  0
  -10.9574  -16.2757   34.3323 H   0  0  0  0  0  0  0  0  0  0  0  0
  -10.2378  -16.8704   35.8363 H   0  0  0  0  0  0  0  0  0  0  0  0
  1  2  2  0
  2  3  2  0
  2  4  1  0
  4  5  1  0
  5  6  1  0
  6  7  1  0
  7  8  1  0
  8  9  1  0
  9 10  1  0
  9 11  1  0
  2 12  1  0
 12 13  1  0
 13 14  1  0
 14 15  1  0
 15 16  1  0
 16 17  1  0
 17 18  1  0
 18 19  1  0
 19 20  1  0
 20 21  1  0
 21 22  1  0
 15 23  1  0
 23 12  1  0
 22 17  1  0
  4 24  1  0
  4 25  1  0
  5 26  1  0
  5 27  1  0
  6 28  1  0
  6 29  1  0
  8 30  1  0
  8 31  1  0
  9 32  1  0
 13 33  1  0
 13 34  1  0
 14 35  1  0
 14 36  1  0
 15 37  1  0
 16 38  1  0
 16 39  1  0
 18 40  1  0
 18 41  1  0
 19 42  1  0
 19 43  1  0
 20 44  1  0
 20 45  1  0
 21 46  1  0
 21 47  1  0
 22 48  1  0
 22 49  1  0
 23 50  1  0
 23 51  1  0
M  END
>  <Energy>  (23) 
116.21534895022717

>  <compound_id>  (23) 
5961

>  <target_id>  (23) 
1

>  <reference_id>  (23) 
124

>  <inspiration_ids>  (23) 
[124, 46]

>  <energy_score>  (23) 
48.15241772854671

>  <distance_score>  (23) 
15.095534666519834

>  <path>  (23) 
/opt/xchem-fragalysis-2/maxwin/BulkDock/SCRATCH/511016/C5961-P124/C5961-P124.minimised.mol

>  <scratch_subdir>  (23) 
/opt/xchem-fragalysis-2/maxwin/BulkDock/SCRATCH/511016/C5961-P124

>  <fragmenstein_runtime>  (23) 
35.4831109046936

>  <fragmenstein_outcome>  (23) 
too moved

>  <fragmenstein_mode>  (23) 
expansion

>  <fragmenstein_error>  (23) 


$$$$
C5961-P46
     RDKit          3D

 51 52  0  0  0  0  0  0  0  0999 V2000
   -1.8443  -21.0037   28.1764 O   0  0  0  0  0  0  0  0  0  0  0  0
   -1.7254  -21.9451   27.0809 S   0  0  0  0  0  0  0  0  0  0  0  0
   -1.2006  -23.2737   27.3242 O   0  0  0  0  0  0  0  0  0  0  0  0
   -0.5923  -21.1064   25.6483 C   0  0  0  0  0  0  0  0  0  0  0  0
    0.9012  -20.3418   26.0875 C   0  0  0  0  0  0  0  0  0  0  0  0
    2.3087  -20.1918   25.0302 C   0  0  0  0  0  0  0  0  0  0  0  0
    3.2174  -18.8813   24.9402 O   0  0  0  0  0  0  0  0  0  0  0  0
    4.5008  -19.0078   24.0612 C   0  0  0  0  0  0  0  0  0  0  0  0
    5.2580  -17.6916   23.4627 C   0  0  0  0  0  0  0  0  0  0  0  0
    5.6580  -17.9027   22.1726 F   0  0  0  0  0  0  0  0  0  0  0  0
    6.4249  -17.2748   24.0099 F   0  0  0  0  0  0  0  0  0  0  0  0
   -3.3864  -22.1985   26.4742 N   0  0  0  0  0  0  0  0  0  0  0  0
   -4.1523  -20.9599   26.3757 C   0  0  0  0  0  0  0  0  0  0  0  0
   -5.5943  -21.3871   26.2120 C   0  0  0  0  0  0  0  0  0  0  0  0
   -5.9411  -22.7475   26.8945 C   0  0  0  0  0  0  0  0  0  0  0  0
   -7.6753  -22.6998   27.5786 C   0  0  0  0  0  0  0  0  0  0  0  0
   -9.2531  -23.2199   28.3331 N   0  0  0  0  0  0  0  0  0  0  0  0
   -9.6902  -24.5332   29.0378 C   0  0  0  0  0  0  0  0  0  0  0  0
  -11.0266  -24.5620   29.8360 C   0  0  0  0  0  0  0  0  0  0  0  0
  -11.3359  -23.2894   30.5791 C   0  0  0  0  0  0  0  0  0  0  0  0
  -11.3093  -22.1304   29.6027 C   0  0  0  0  0  0  0  0  0  0  0  0
  -10.4787  -22.3645   28.3096 C   0  0  0  0  0  0  0  0  0  0  0  0
   -4.4038  -23.2110   27.2196 C   0  0  0  0  0  0  0  0  0  0  0  0
   -0.3758  -21.9228   24.9536 H   0  0  0  0  0  0  0  0  0  0  0  0
   -1.2331  -20.3494   25.1897 H   0  0  0  0  0  0  0  0  0  0  0  0
    1.2674  -20.9058   26.9545 H   0  0  0  0  0  0  0  0  0  0  0  0
    0.6496  -19.3406   26.4461 H   0  0  0  0  0  0  0  0  0  0  0  0
    3.0076  -20.9641   25.3705 H   0  0  0  0  0  0  0  0  0  0  0  0
    1.9919  -20.4413   24.0160 H   0  0  0  0  0  0  0  0  0  0  0  0
    4.1869  -19.6205   23.2103 H   0  0  0  0  0  0  0  0  0  0  0  0
    5.2050  -19.5862   24.6661 H   0  0  0  0  0  0  0  0  0  0  0  0
    4.5609  -16.8680   23.5543 H   0  0  0  0  0  0  0  0  0  0  0  0
   -3.8224  -20.3758   25.5104 H   0  0  0  0  0  0  0  0  0  0  0  0
   -4.0241  -20.3410   27.2589 H   0  0  0  0  0  0  0  0  0  0  0  0
   -6.2159  -20.5628   26.5534 H   0  0  0  0  0  0  0  0  0  0  0  0
   -5.6997  -21.5328   25.1287 H   0  0  0  0  0  0  0  0  0  0  0  0
   -6.1433  -23.3921   26.0219 H   0  0  0  0  0  0  0  0  0  0  0  0
   -7.7919  -21.6322   27.5039 H   0  0  0  0  0  0  0  0  0  0  0  0
   -7.9652  -23.1479   26.6552 H   0  0  0  0  0  0  0  0  0  0  0  0
   -8.9036  -24.8993   29.6993 H   0  0  0  0  0  0  0  0  0  0  0  0
   -9.9107  -25.3239   28.3085 H   0  0  0  0  0  0  0  0  0  0  0  0
  -11.0068  -25.4075   30.5337 H   0  0  0  0  0  0  0  0  0  0  0  0
  -11.8461  -24.7601   29.1319 H   0  0  0  0  0  0  0  0  0  0  0  0
  -12.2997  -23.3188   31.0722 H   0  0  0  0  0  0  0  0  0  0  0  0
  -10.6404  -23.1496   31.4138 H   0  0  0  0  0  0  0  0  0  0  0  0
  -10.9391  -21.2495   30.1343 H   0  0  0  0  0  0  0  0  0  0  0  0
  -12.3344  -21.8865   29.3012 H   0  0  0  0  0  0  0  0  0  0  0  0
  -11.1539  -22.7466   27.5333 H   0  0  0  0  0  0  0  0  0  0  0  0
  -10.1852  -21.3742   28.0480 H   0  0  0  0  0  0  0  0  0  0  0  0
   -4.2227  -24.1759   26.7322 H   0  0  0  0  0  0  0  0  0  0  0  0
   -4.0666  -23.3187   28.2408 H   0  0  0  0  0  0  0  0  0  0  0  0
  1  2  2  0
  2  3  2  0
  2  4  1  0
  4  5  1  0
  5  6  1  0
  6  7  1  0
  7  8  1  0
  8  9  1  0
  9 10  1  0
  9 11  1  0
  2 12  1  0
 12 13  1  0
 13 14  1  0
 14 15  1  0
 15 16  1  0
 16 17  1  0
 17 18  1  0
 18 19  1  0
 19 20  1  0
 20 21  1  0
 21 22  1  0
 15 23  1  0
 23 12  1  0
 22 17  1  0
  4 24  1  0
  4 25  1  0
  5 26  1  0
  5 27  1  0
  6 28  1  0
  6 29  1  0
  8 30  1  0
  8 31  1  0
  9 32  1  0
 13 33  1  0
 13 34  1  0
 14 35  1  0
 14 36  1  0
 15 37  1  0
 16 38  1  0
 16 39  1  0
 18 40  1  0
 18 41  1  0
 19 42  1  0
 19 43  1  0
 20 44  1  0
 20 45  1  0
 21 46  1  0
 21 47  1  0
 22 48  1  0
 22 49  1  0
 23 50  1  0
 23 51  1  0
M  END
>  <Energy>  (24) 
263.8728887001343

>  <compound_id>  (24) 
5961

>  <target_id>  (24) 
1

>  <reference_id>  (24) 
46

>  <inspiration_ids>  (24) 
[124, 46]

>  <energy_score>  (24) 
195.8099574784476

>  <distance_score>  (24) 
13.522684317501618

>  <path>  (24) 
/opt/xchem-fragalysis-2/maxwin/BulkDock/SCRATCH/511016/C5961-P46/C5961-P46.minimised.mol

>  <scratch_subdir>  (24) 
/opt/xchem-fragalysis-2/maxwin/BulkDock/SCRATCH/511016/C5961-P46

>  <fragmenstein_runtime>  (24) 
18.72376036643982

>  <fragmenstein_outcome>  (24) 
too moved

>  <fragmenstein_mode>  (24) 
expansion

>  <fragmenstein_error>  (24) 


$$$$
C5964-P124
     RDKit          3D

 58 59  0  0  0  0  0  0  0  0999 V2000
   -7.5810  -15.1722   26.8326 C   0  0  0  0  0  0  0  0  0  0  0  0
   -8.3166  -16.3856   26.2250 C   0  0  0  0  0  0  0  0  0  0  0  0
   -8.0037  -17.6960   27.2848 C   0  0  0  0  0  0  0  0  0  0  0  0
   -9.2177  -18.8313   27.6662 N   0  0  0  0  0  0  0  0  0  0  0  0
   -9.2371  -20.7057   27.5623 C   0  0  0  0  0  0  0  0  0  0  0  0
   -8.1994  -21.3833   27.2572 O   0  0  0  0  0  0  0  0  0  0  0  0
  -10.7011  -21.6929   28.0314 C   0  0  0  0  0  0  0  0  0  0  0  0
  -10.6245  -23.2250   28.0272 C   0  0  0  0  0  0  0  0  0  0  0  0
  -11.2278  -24.0011   29.2203 C   0  0  0  0  0  0  0  0  0  0  0  0
  -11.2165  -23.5971   30.6275 N   0  0  0  0  0  0  0  0  0  0  0  0
  -11.6678  -22.2854   31.0789 C   0  0  0  0  0  0  0  0  0  0  0  0
  -12.1337  -22.1652   32.5373 C   0  0  0  0  0  0  0  0  0  0  0  0
  -11.7513  -23.3416   33.4157 C   0  0  0  0  0  0  0  0  0  0  0  0
  -10.4245  -23.9410   32.9856 C   0  0  0  0  0  0  0  0  0  0  0  0
  -10.4674  -24.4472   31.5552 C   0  0  0  0  0  0  0  0  0  0  0  0
   -7.8829  -16.3244   24.7425 N   0  0  0  0  0  0  0  0  0  0  0  0
   -8.0131  -15.2239   23.7270 C   0  0  0  0  0  0  0  0  0  0  0  0
   -8.5595  -14.1518   23.8013 O   0  0  0  0  0  0  0  0  0  0  0  0
   -7.3944  -15.5848   22.2719 C   0  0  0  0  0  0  0  0  0  0  0  0
   -6.6224  -14.5105   21.4719 N   0  0  0  0  0  0  0  0  0  0  0  0
   -7.1313  -13.1221   21.4917 C   0  0  0  0  0  0  0  0  0  0  0  0
   -6.5114  -12.4151   20.2618 C   0  0  0  0  0  0  0  0  0  0  0  0
   -6.0392  -13.5325   19.3414 C   0  0  0  0  0  0  0  0  0  0  0  0
   -6.5645  -14.8149   20.0115 C   0  0  0  0  0  0  0  0  0  0  0  0
   -6.5366  -15.4394   27.0117 H   0  0  0  0  0  0  0  0  0  0  0  0
   -7.9696  -14.8249   27.7795 H   0  0  0  0  0  0  0  0  0  0  0  0
   -7.6216  -14.2907   26.1875 H   0  0  0  0  0  0  0  0  0  0  0  0
   -9.3938  -16.1985   26.2088 H   0  0  0  0  0  0  0  0  0  0  0  0
   -7.1600  -18.1880   26.7969 H   0  0  0  0  0  0  0  0  0  0  0  0
   -7.7043  -17.2505   28.1794 H   0  0  0  0  0  0  0  0  0  0  0  0
  -10.1438  -18.5147   27.8340 H   0  0  0  0  0  0  0  0  0  0  0  0
  -11.0240  -21.3099   28.9905 H   0  0  0  0  0  0  0  0  0  0  0  0
  -11.4904  -21.5363   27.2895 H   0  0  0  0  0  0  0  0  0  0  0  0
   -9.6095  -23.5814   27.8284 H   0  0  0  0  0  0  0  0  0  0  0  0
  -11.1711  -23.5772   27.1382 H   0  0  0  0  0  0  0  0  0  0  0  0
  -12.2511  -24.2194   28.9478 H   0  0  0  0  0  0  0  0  0  0  0  0
  -10.7578  -24.9945   29.1553 H   0  0  0  0  0  0  0  0  0  0  0  0
  -12.4883  -21.9401   30.4402 H   0  0  0  0  0  0  0  0  0  0  0  0
  -10.8873  -21.5344   30.9596 H   0  0  0  0  0  0  0  0  0  0  0  0
  -11.6993  -21.2494   32.9563 H   0  0  0  0  0  0  0  0  0  0  0  0
  -13.2176  -22.0098   32.5875 H   0  0  0  0  0  0  0  0  0  0  0  0
  -11.7500  -23.0090   34.4513 H   0  0  0  0  0  0  0  0  0  0  0  0
  -12.5134  -24.1192   33.4035 H   0  0  0  0  0  0  0  0  0  0  0  0
   -9.6252  -23.2014   33.0763 H   0  0  0  0  0  0  0  0  0  0  0  0
  -10.1637  -24.7773   33.6453 H   0  0  0  0  0  0  0  0  0  0  0  0
  -10.8623  -25.4601   31.5906 H   0  0  0  0  0  0  0  0  0  0  0  0
   -9.4424  -24.6112   31.2117 H   0  0  0  0  0  0  0  0  0  0  0  0
   -7.2851  -17.0525   24.3697 H   0  0  0  0  0  0  0  0  0  0  0  0
   -6.7189  -16.4388   22.3862 H   0  0  0  0  0  0  0  0  0  0  0  0
   -8.2573  -15.9112   21.6779 H   0  0  0  0  0  0  0  0  0  0  0  0
   -8.2228  -13.1191   21.3798 H   0  0  0  0  0  0  0  0  0  0  0  0
   -6.8808  -12.6060   22.4220 H   0  0  0  0  0  0  0  0  0  0  0  0
   -7.2731  -11.8030   19.7654 H   0  0  0  0  0  0  0  0  0  0  0  0
   -5.6874  -11.7474   20.5167 H   0  0  0  0  0  0  0  0  0  0  0  0
   -4.9479  -13.5341   19.2535 H   0  0  0  0  0  0  0  0  0  0  0  0
   -6.4470  -13.4214   18.3313 H   0  0  0  0  0  0  0  0  0  0  0  0
   -7.5683  -15.0379   19.6280 H   0  0  0  0  0  0  0  0  0  0  0  0
   -5.9163  -15.6722   19.8032 H   0  0  0  0  0  0  0  0  0  0  0  0
  1  2  1  0
  2  3  1  0
  3  4  1  0
  4  5  1  0
  5  6  2  0
  5  7  1  0
  7  8  1  0
  8  9  1  0
  9 10  1  0
 10 11  1  0
 11 12  1  0
 12 13  1  0
 13 14  1  0
 14 15  1  0
  2 16  1  0
 16 17  1  0
 17 18  2  0
 17 19  1  0
 19 20  1  0
 20 21  1  0
 21 22  1  0
 22 23  1  0
 23 24  1  0
 15 10  1  0
 24 20  1  0
  1 25  1  0
  1 26  1  0
  1 27  1  0
  2 28  1  0
  3 29  1  0
  3 30  1  0
  4 31  1  0
  7 32  1  0
  7 33  1  0
  8 34  1  0
  8 35  1  0
  9 36  1  0
  9 37  1  0
 11 38  1  0
 11 39  1  0
 12 40  1  0
 12 41  1  0
 13 42  1  0
 13 43  1  0
 14 44  1  0
 14 45  1  0
 15 46  1  0
 15 47  1  0
 16 48  1  0
 19 49  1  0
 19 50  1  0
 21 51  1  0
 21 52  1  0
 22 53  1  0
 22 54  1  0
 23 55  1  0
 23 56  1  0
 24 57  1  0
 24 58  1  0
M  END
>  <Energy>  (25) 
221.22436853860864

>  <compound_id>  (25) 
5964

>  <target_id>  (25) 
1

>  <reference_id>  (25) 
124

>  <inspiration_ids>  (25) 
[124, 46]

>  <energy_score>  (25) 
143.67785105272623

>  <distance_score>  (25) 
17.173271908515236

>  <path>  (25) 
/opt/xchem-fragalysis-2/maxwin/BulkDock/SCRATCH/511016/C5964-P124/C5964-P124.minimised.mol

>  <scratch_subdir>  (25) 
/opt/xchem-fragalysis-2/maxwin/BulkDock/SCRATCH/511016/C5964-P124

>  <fragmenstein_runtime>  (25) 
29.15689754486084

>  <fragmenstein_outcome>  (25) 
too moved

>  <fragmenstein_mode>  (25) 
expansion

>  <fragmenstein_error>  (25) 


$$$$
C5964-P46
     RDKit          3D

 58 59  0  0  0  0  0  0  0  0999 V2000
   -2.0829  -14.4137   25.6306 C   0  0  0  0  0  0  0  0  0  0  0  0
   -1.2264  -15.1075   24.3200 C   0  0  0  0  0  0  0  0  0  0  0  0
   -2.3340  -16.7344   24.7200 C   0  0  0  0  0  0  0  0  0  0  0  0
   -3.6682  -16.7028   24.0724 N   0  0  0  0  0  0  0  0  0  0  0  0
   -4.6737  -17.7354   23.9196 C   0  0  0  0  0  0  0  0  0  0  0  0
   -4.6498  -18.8951   24.2073 O   0  0  0  0  0  0  0  0  0  0  0  0
   -5.9348  -17.0936   23.2998 C   0  0  0  0  0  0  0  0  0  0  0  0
   -7.1686  -18.0128   23.1615 C   0  0  0  0  0  0  0  0  0  0  0  0
   -8.4776  -17.1908   23.2995 C   0  0  0  0  0  0  0  0  0  0  0  0
   -9.7929  -17.8709   23.2665 N   0  0  0  0  0  0  0  0  0  0  0  0
  -10.8456  -16.8518   23.0653 C   0  0  0  0  0  0  0  0  0  0  0  0
  -12.2634  -17.4165   23.0192 C   0  0  0  0  0  0  0  0  0  0  0  0
  -12.4052  -18.7110   22.2331 C   0  0  0  0  0  0  0  0  0  0  0  0
  -11.2195  -19.6501   22.3923 C   0  0  0  0  0  0  0  0  0  0  0  0
   -9.9036  -18.8911   22.2198 C   0  0  0  0  0  0  0  0  0  0  0  0
    0.5348  -14.3320   24.0350 N   0  0  0  0  0  0  0  0  0  0  0  0
    1.9902  -14.9388   23.0326 C   0  0  0  0  0  0  0  0  0  0  0  0
    2.0900  -15.9188   22.2799 O   0  0  0  0  0  0  0  0  0  0  0  0
    3.4552  -13.9713   23.3346 C   0  0  0  0  0  0  0  0  0  0  0  0
    4.2969  -13.3874   22.1996 N   0  0  0  0  0  0  0  0  0  0  0  0
    4.5939  -14.2705   21.0766 C   0  0  0  0  0  0  0  0  0  0  0  0
    5.6498  -13.4851   20.2765 C   0  0  0  0  0  0  0  0  0  0  0  0
    6.3210  -12.5702   21.2920 C   0  0  0  0  0  0  0  0  0  0  0  0
    5.6449  -12.9381   22.6102 C   0  0  0  0  0  0  0  0  0  0  0  0
   -2.3976  -13.3688   25.5907 H   0  0  0  0  0  0  0  0  0  0  0  0
   -2.8052  -15.1397   25.9753 H   0  0  0  0  0  0  0  0  0  0  0  0
   -1.8684  -14.7304   26.6652 H   0  0  0  0  0  0  0  0  0  0  0  0
   -1.4142  -14.9078   23.3088 H   0  0  0  0  0  0  0  0  0  0  0  0
   -1.9166  -17.7259   24.4782 H   0  0  0  0  0  0  0  0  0  0  0  0
   -2.6314  -16.9069   25.7738 H   0  0  0  0  0  0  0  0  0  0  0  0
   -4.0630  -15.8145   23.7945 H   0  0  0  0  0  0  0  0  0  0  0  0
   -6.2009  -16.2457   23.9369 H   0  0  0  0  0  0  0  0  0  0  0  0
   -5.6690  -16.6996   22.3116 H   0  0  0  0  0  0  0  0  0  0  0  0
   -7.1049  -18.8283   23.8735 H   0  0  0  0  0  0  0  0  0  0  0  0
   -7.1283  -18.4776   22.1689 H   0  0  0  0  0  0  0  0  0  0  0  0
   -8.4310  -16.6295   24.2420 H   0  0  0  0  0  0  0  0  0  0  0  0
   -8.4436  -16.4409   22.4960 H   0  0  0  0  0  0  0  0  0  0  0  0
  -10.6679  -16.3138   22.1235 H   0  0  0  0  0  0  0  0  0  0  0  0
  -10.7968  -16.1033   23.8655 H   0  0  0  0  0  0  0  0  0  0  0  0
  -12.9346  -16.6627   22.5885 H   0  0  0  0  0  0  0  0  0  0  0  0
  -12.6290  -17.5672   24.0223 H   0  0  0  0  0  0  0  0  0  0  0  0
  -12.4989  -18.4560   21.1693 H   0  0  0  0  0  0  0  0  0  0  0  0
  -13.3348  -19.2220   22.5083 H   0  0  0  0  0  0  0  0  0  0  0  0
  -11.2837  -20.4401   21.6345 H   0  0  0  0  0  0  0  0  0  0  0  0
  -11.2644  -20.1558   23.3618 H   0  0  0  0  0  0  0  0  0  0  0  0
   -9.8550  -18.4362   21.2212 H   0  0  0  0  0  0  0  0  0  0  0  0
   -9.0877  -19.6147   22.2597 H   0  0  0  0  0  0  0  0  0  0  0  0
    0.8038  -13.5424   24.6154 H   0  0  0  0  0  0  0  0  0  0  0  0
    3.1033  -13.1147   23.8981 H   0  0  0  0  0  0  0  0  0  0  0  0
    4.1111  -14.5931   23.9514 H   0  0  0  0  0  0  0  0  0  0  0  0
    3.7183  -14.4932   20.4623 H   0  0  0  0  0  0  0  0  0  0  0  0
    5.0181  -15.2217   21.4226 H   0  0  0  0  0  0  0  0  0  0  0  0
    6.3677  -14.1631   19.8040 H   0  0  0  0  0  0  0  0  0  0  0  0
    5.1778  -12.8890   19.4874 H   0  0  0  0  0  0  0  0  0  0  0  0
    6.1315  -11.5217   21.0350 H   0  0  0  0  0  0  0  0  0  0  0  0
    7.4034  -12.7246   21.3335 H   0  0  0  0  0  0  0  0  0  0  0  0
    5.6580  -12.0878   23.2853 H   0  0  0  0  0  0  0  0  0  0  0  0
    6.1939  -13.7560   23.0954 H   0  0  0  0  0  0  0  0  0  0  0  0
  1  2  1  0
  2  3  1  0
  3  4  1  0
  4  5  1  0
  5  6  2  0
  5  7  1  0
  7  8  1  0
  8  9  1  0
  9 10  1  0
 10 11  1  0
 11 12  1  0
 12 13  1  0
 13 14  1  0
 14 15  1  0
  2 16  1  0
 16 17  1  0
 17 18  2  0
 17 19  1  0
 19 20  1  0
 20 21  1  0
 21 22  1  0
 22 23  1  0
 23 24  1  0
 15 10  1  0
 24 20  1  0
  1 25  1  0
  1 26  1  0
  1 27  1  0
  2 28  1  0
  3 29  1  0
  3 30  1  0
  4 31  1  0
  7 32  1  0
  7 33  1  0
  8 34  1  0
  8 35  1  0
  9 36  1  0
  9 37  1  0
 11 38  1  0
 11 39  1  0
 12 40  1  0
 12 41  1  0
 13 42  1  0
 13 43  1  0
 14 44  1  0
 14 45  1  0
 15 46  1  0
 15 47  1  0
 16 48  1  0
 19 49  1  0
 19 50  1  0
 21 51  1  0
 21 52  1  0
 22 53  1  0
 22 54  1  0
 23 55  1  0
 23 56  1  0
 24 57  1  0
 24 58  1  0
M  END
>  <Energy>  (26) 
334.43207019088544

>  <compound_id>  (26) 
5964

>  <target_id>  (26) 
1

>  <reference_id>  (26) 
46

>  <inspiration_ids>  (26) 
[124, 46]

>  <energy_score>  (26) 
256.8855527049894

>  <distance_score>  (26) 
14.792039356881695

>  <path>  (26) 
/opt/xchem-fragalysis-2/maxwin/BulkDock/SCRATCH/511016/C5964-P46/C5964-P46.minimised.mol

>  <scratch_subdir>  (26) 
/opt/xchem-fragalysis-2/maxwin/BulkDock/SCRATCH/511016/C5964-P46

>  <fragmenstein_runtime>  (26) 
24.645421743392944

>  <fragmenstein_outcome>  (26) 
too moved

>  <fragmenstein_mode>  (26) 
expansion

>  <fragmenstein_error>  (26) 


$$$$
C4883-P94
     RDKit          3D

 41 43  0  0  0  0  0  0  0  0999 V2000
   -0.8235   -9.6586   20.6552 O   0  0  0  0  0  0  0  0  0  0  0  0
   -0.9201  -10.3651   19.6840 C   0  0  0  0  0  0  0  0  0  0  0  0
   -0.2712   -9.7205   18.3414 C   0  0  0  0  0  0  0  0  0  0  0  0
    0.8050   -8.5309   18.6440 C   0  0  0  0  0  0  0  0  0  0  0  0
    1.5798   -7.8334   17.4578 C   0  0  0  0  0  0  0  0  0  0  0  0
    2.2535   -6.5584   17.7507 N   0  0  0  0  0  0  0  0  0  0  0  0
    2.7437   -6.1806   18.9736 C   0  0  0  0  0  0  0  0  0  0  0  0
    3.1642   -4.9345   18.9787 N   0  0  0  0  0  0  0  0  0  0  0  0
    2.9605   -4.4709   17.7008 C   0  0  0  0  0  0  0  0  0  0  0  0
    3.1783   -3.1826   17.1692 C   0  0  0  0  0  0  0  0  0  0  0  0
    2.9555   -2.9531   15.8118 C   0  0  0  0  0  0  0  0  0  0  0  0
    2.4579   -3.9818   15.0136 C   0  0  0  0  0  0  0  0  0  0  0  0
    2.1713   -5.2616   15.5335 C   0  0  0  0  0  0  0  0  0  0  0  0
    2.4434   -5.4833   16.8904 C   0  0  0  0  0  0  0  0  0  0  0  0
   -1.4676  -11.7528   19.5415 N   0  0  0  0  0  0  0  0  0  0  0  0
   -2.1878  -12.6932   20.5943 C   0  0  0  0  0  0  0  0  0  0  0  0
   -2.1020  -14.5666   21.4338 C   0  0  0  0  0  0  0  0  0  0  0  0
   -3.1489  -15.0436   23.2373 C   0  0  0  0  0  0  0  0  0  0  0  0
   -5.0039  -15.4231   23.6762 C   0  0  0  0  0  0  0  0  0  0  0  0
   -6.0500  -17.1086   23.4267 C   0  0  0  0  0  0  0  0  0  0  0  0
   -4.1888  -16.3860   22.1600 S   0  0  0  0  0  0  0  0  0  0  0  0
   -3.1688  -15.8525   24.2075 C   0  0  0  0  0  0  0  0  0  0  0  0
   -1.0997   -9.2929   17.7658 H   0  0  0  0  0  0  0  0  0  0  0  0
    0.1987  -10.4993   17.7354 H   0  0  0  0  0  0  0  0  0  0  0  0
    0.2551   -7.7539   19.1915 H   0  0  0  0  0  0  0  0  0  0  0  0
    1.5439   -8.9328   19.3487 H   0  0  0  0  0  0  0  0  0  0  0  0
    2.3512   -8.5073   17.0700 H   0  0  0  0  0  0  0  0  0  0  0  0
    0.8617   -7.6279   16.6565 H   0  0  0  0  0  0  0  0  0  0  0  0
    2.7503   -6.8387   19.8330 H   0  0  0  0  0  0  0  0  0  0  0  0
    3.5303   -2.3883   17.8180 H   0  0  0  0  0  0  0  0  0  0  0  0
    3.1453   -1.9722   15.3849 H   0  0  0  0  0  0  0  0  0  0  0  0
    2.2679   -3.7891   13.9584 H   0  0  0  0  0  0  0  0  0  0  0  0
    1.7623   -6.0377   14.8957 H   0  0  0  0  0  0  0  0  0  0  0  0
   -1.4695  -12.0110   18.5602 H   0  0  0  0  0  0  0  0  0  0  0  0
   -3.2274  -12.3959   20.3767 H   0  0  0  0  0  0  0  0  0  0  0  0
   -1.9591  -11.9403   21.3372 H   0  0  0  0  0  0  0  0  0  0  0  0
   -2.2917  -15.2456   20.5622 H   0  0  0  0  0  0  0  0  0  0  0  0
   -1.1237  -14.7969   21.9952 H   0  0  0  0  0  0  0  0  0  0  0  0
   -5.5629  -14.4854   23.5120 H   0  0  0  0  0  0  0  0  0  0  0  0
   -6.0462  -17.9507   22.7116 H   0  0  0  0  0  0  0  0  0  0  0  0
   -2.6092  -16.5264   24.8410 H   0  0  0  0  0  0  0  0  0  0  0  0
  1  2  2  0
  2  3  1  0
  3  4  1  0
  4  5  1  0
  5  6  1  0
  6  7  1  0
  7  8  2  0
  8  9  1  0
  9 10  2  0
 10 11  1  0
 11 12  2  0
 12 13  1  0
 13 14  2  0
  2 15  1  0
 15 16  1  0
 16 17  1  0
 17 18  1  0
 18 19  1  0
 19 20  2  0
 20 21  1  0
 21 22  1  0
 14  6  1  0
 22 18  2  0
 14  9  1  0
  3 23  1  0
  3 24  1  0
  4 25  1  0
  4 26  1  0
  5 27  1  0
  5 28  1  0
  7 29  1  0
 10 30  1  0
 11 31  1  0
 12 32  1  0
 13 33  1  0
 15 34  1  0
 16 35  1  0
 16 36  1  0
 17 37  1  0
 17 38  1  0
 19 39  1  0
 20 40  1  0
 22 41  1  0
M  END
>  <Energy>  (27) 
709.59536257840341

>  <compound_id>  (27) 
4883

>  <target_id>  (27) 
1

>  <reference_id>  (27) 
94

>  <inspiration_ids>  (27) 
[94, 120]

>  <energy_score>  (27) 
669.4813950407399

>  <distance_score>  (27) 
14.135365608875935

>  <path>  (27) 
/opt/xchem-fragalysis-2/maxwin/BulkDock/SCRATCH/511016/C4883-P94/C4883-P94.minimised.mol

>  <scratch_subdir>  (27) 
/opt/xchem-fragalysis-2/maxwin/BulkDock/SCRATCH/511016/C4883-P94

>  <fragmenstein_runtime>  (27) 
47.243608713150024

>  <fragmenstein_outcome>  (27) 
too moved

>  <fragmenstein_mode>  (27) 
expansion

>  <fragmenstein_error>  (27) 


$$$$
C4883-P120
     RDKit          3D

 41 43  0  0  0  0  0  0  0  0999 V2000
   -0.2683   -9.5557   20.2186 O   0  0  0  0  0  0  0  0  0  0  0  0
   -0.5834   -8.8916   21.1677 C   0  0  0  0  0  0  0  0  0  0  0  0
    0.3796   -7.6565   21.5400 C   0  0  0  0  0  0  0  0  0  0  0  0
    1.8156   -7.5356   20.8021 C   0  0  0  0  0  0  0  0  0  0  0  0
    2.4267   -6.0846   20.7081 C   0  0  0  0  0  0  0  0  0  0  0  0
    3.8657   -5.8879   20.5258 N   0  0  0  0  0  0  0  0  0  0  0  0
    4.8113   -6.8257   20.2167 C   0  0  0  0  0  0  0  0  0  0  0  0
    6.0377   -6.3619   20.3696 N   0  0  0  0  0  0  0  0  0  0  0  0
    5.8894   -5.0650   20.8014 C   0  0  0  0  0  0  0  0  0  0  0  0
    6.8481   -4.1371   21.2504 C   0  0  0  0  0  0  0  0  0  0  0  0
    6.4191   -2.8493   21.6130 C   0  0  0  0  0  0  0  0  0  0  0  0
    5.0808   -2.4828   21.4994 C   0  0  0  0  0  0  0  0  0  0  0  0
    4.1070   -3.4123   21.1137 C   0  0  0  0  0  0  0  0  0  0  0  0
    4.5426   -4.7064   20.7985 C   0  0  0  0  0  0  0  0  0  0  0  0
   -1.7886   -8.9505   22.0267 N   0  0  0  0  0  0  0  0  0  0  0  0
   -3.0541   -9.8010   21.9174 C   0  0  0  0  0  0  0  0  0  0  0  0
   -3.8118  -10.5467   23.4792 C   0  0  0  0  0  0  0  0  0  0  0  0
   -5.1806  -11.8359   24.2817 C   0  0  0  0  0  0  0  0  0  0  0  0
   -6.0644  -12.7809   24.2322 C   0  0  0  0  0  0  0  0  0  0  0  0
   -6.7707  -13.0594   25.8282 C   0  0  0  0  0  0  0  0  0  0  0  0
   -6.8401  -11.7237   26.8516 S   0  0  0  0  0  0  0  0  0  0  0  0
   -6.5841  -11.2647   25.2244 C   0  0  0  0  0  0  0  0  0  0  0  0
   -0.1944   -6.7530   21.3009 H   0  0  0  0  0  0  0  0  0  0  0  0
    0.5510   -7.6765   22.6221 H   0  0  0  0  0  0  0  0  0  0  0  0
    1.7322   -7.9412   19.7872 H   0  0  0  0  0  0  0  0  0  0  0  0
    2.5048   -8.1927   21.3460 H   0  0  0  0  0  0  0  0  0  0  0  0
    1.9394   -5.5470   19.8863 H   0  0  0  0  0  0  0  0  0  0  0  0
    2.1766   -5.5662   21.6421 H   0  0  0  0  0  0  0  0  0  0  0  0
    4.5619   -7.8356   19.9161 H   0  0  0  0  0  0  0  0  0  0  0  0
    7.8907   -4.4286   21.3280 H   0  0  0  0  0  0  0  0  0  0  0  0
    7.1176   -2.1257   22.0147 H   0  0  0  0  0  0  0  0  0  0  0  0
    4.7718   -1.4774   21.7799 H   0  0  0  0  0  0  0  0  0  0  0  0
    3.0565   -3.1414   21.0964 H   0  0  0  0  0  0  0  0  0  0  0  0
   -1.7639   -8.1817   22.6877 H   0  0  0  0  0  0  0  0  0  0  0  0
   -3.7441   -9.0513   21.5060 H   0  0  0  0  0  0  0  0  0  0  0  0
   -2.8672  -10.5803   21.1664 H   0  0  0  0  0  0  0  0  0  0  0  0
   -4.4575  -10.3096   22.5900 H   0  0  0  0  0  0  0  0  0  0  0  0
   -3.4352   -9.7105   24.0669 H   0  0  0  0  0  0  0  0  0  0  0  0
   -6.0036  -13.5250   23.4576 H   0  0  0  0  0  0  0  0  0  0  0  0
   -7.1273  -14.0324   26.1743 H   0  0  0  0  0  0  0  0  0  0  0  0
   -7.2528  -10.4394   24.9767 H   0  0  0  0  0  0  0  0  0  0  0  0
  1  2  2  0
  2  3  1  0
  3  4  1  0
  4  5  1  0
  5  6  1  0
  6  7  1  0
  7  8  2  0
  8  9  1  0
  9 10  2  0
 10 11  1  0
 11 12  2  0
 12 13  1  0
 13 14  2  0
  2 15  1  0
 15 16  1  0
 16 17  1  0
 17 18  1  0
 18 19  1  0
 19 20  2  0
 20 21  1  0
 21 22  1  0
 14  6  1  0
 22 18  2  0
 14  9  1  0
  3 23  1  0
  3 24  1  0
  4 25  1  0
  4 26  1  0
  5 27  1  0
  5 28  1  0
  7 29  1  0
 10 30  1  0
 11 31  1  0
 12 32  1  0
 13 33  1  0
 15 34  1  0
 16 35  1  0
 16 36  1  0
 17 37  1  0
 17 38  1  0
 19 39  1  0
 20 40  1  0
 22 41  1  0
M  END
>  <Energy>  (28) 
429.21930854987181

>  <compound_id>  (28) 
4883

>  <target_id>  (28) 
1

>  <reference_id>  (28) 
120

>  <inspiration_ids>  (28) 
[94, 120]

>  <energy_score>  (28) 
389.10534101220236

>  <distance_score>  (28) 
14.054340730475474

>  <path>  (28) 
/opt/xchem-fragalysis-2/maxwin/BulkDock/SCRATCH/511016/C4883-P120/C4883-P120.minimised.mol

>  <scratch_subdir>  (28) 
/opt/xchem-fragalysis-2/maxwin/BulkDock/SCRATCH/511016/C4883-P120

>  <fragmenstein_runtime>  (28) 
29.915902137756348

>  <fragmenstein_outcome>  (28) 
too moved

>  <fragmenstein_mode>  (28) 
expansion

>  <fragmenstein_error>  (28) 


$$$$
C4895-P94
     RDKit          3D

 40 43  0  0  0  0  0  0  0  0999 V2000
    1.5630   -6.6984   23.3279 O   0  0  0  0  0  0  0  0  0  0  0  0
    0.6629   -5.9998   22.9421 C   0  0  0  0  0  0  0  0  0  0  0  0
   -0.7579   -6.2347   23.6354 C   0  0  0  0  0  0  0  0  0  0  0  0
   -1.7782   -6.8926   22.8260 N   0  0  0  0  0  0  0  0  0  0  0  0
   -1.8720   -6.4623   21.5471 N   0  0  0  0  0  0  0  0  0  0  0  0
   -2.8419   -7.1603   20.9935 N   0  0  0  0  0  0  0  0  0  0  0  0
   -3.4378   -7.9700   21.9094 N   0  0  0  0  0  0  0  0  0  0  0  0
   -2.8383   -7.7791   23.0767 C   0  0  0  0  0  0  0  0  0  0  0  0
   -3.4779   -8.5715   24.3651 C   0  0  0  0  0  0  0  0  0  0  0  0
   -3.1364   -8.5294   25.7513 C   0  0  0  0  0  0  0  0  0  0  0  0
   -3.8918   -9.3993   26.5257 C   0  0  0  0  0  0  0  0  0  0  0  0
   -5.0726  -10.2207   25.6081 S   0  0  0  0  0  0  0  0  0  0  0  0
   -4.5446   -9.4441   24.1736 C   0  0  0  0  0  0  0  0  0  0  0  0
    0.6532   -4.9148   21.9641 N   0  0  0  0  0  0  0  0  0  0  0  0
    1.7342   -4.3928   21.0584 C   0  0  0  0  0  0  0  0  0  0  0  0
    3.0430   -3.7831   21.6555 C   0  0  0  0  0  0  0  0  0  0  0  0
    3.8034   -2.7870   20.7710 C   0  0  0  0  0  0  0  0  0  0  0  0
    3.5520   -2.4104   19.5291 N   0  0  0  0  0  0  0  0  0  0  0  0
    4.4247   -1.3659   19.2444 C   0  0  0  0  0  0  0  0  0  0  0  0
    4.5567   -0.5661   18.0912 C   0  0  0  0  0  0  0  0  0  0  0  0
    5.4834    0.4853   18.0844 C   0  0  0  0  0  0  0  0  0  0  0  0
    6.2524    0.7475   19.2166 C   0  0  0  0  0  0  0  0  0  0  0  0
    6.1701   -0.0591   20.3640 C   0  0  0  0  0  0  0  0  0  0  0  0
    5.2506   -1.1129   20.3313 C   0  0  0  0  0  0  0  0  0  0  0  0
    4.8797   -2.0607   21.2588 N   0  0  0  0  0  0  0  0  0  0  0  0
   -0.6090   -6.8485   24.5294 H   0  0  0  0  0  0  0  0  0  0  0  0
   -1.1655   -5.2657   23.9430 H   0  0  0  0  0  0  0  0  0  0  0  0
   -2.3603   -7.9065   26.1770 H   0  0  0  0  0  0  0  0  0  0  0  0
   -3.8209   -9.5685   27.5919 H   0  0  0  0  0  0  0  0  0  0  0  0
   -5.0409   -9.6774   23.2395 H   0  0  0  0  0  0  0  0  0  0  0  0
   -0.3045   -4.6015   21.8247 H   0  0  0  0  0  0  0  0  0  0  0  0
    1.2328   -3.6357   20.4446 H   0  0  0  0  0  0  0  0  0  0  0  0
    2.0016   -5.2220   20.3942 H   0  0  0  0  0  0  0  0  0  0  0  0
    2.7782   -3.2587   22.5827 H   0  0  0  0  0  0  0  0  0  0  0  0
    3.7196   -4.5990   21.9360 H   0  0  0  0  0  0  0  0  0  0  0  0
    3.9206   -0.7560   17.2324 H   0  0  0  0  0  0  0  0  0  0  0  0
    5.5624    1.1217   17.2058 H   0  0  0  0  0  0  0  0  0  0  0  0
    6.8993    1.6192   19.2120 H   0  0  0  0  0  0  0  0  0  0  0  0
    6.7614    0.1564   21.2475 H   0  0  0  0  0  0  0  0  0  0  0  0
    5.2463   -2.1393   22.1956 H   0  0  0  0  0  0  0  0  0  0  0  0
  1  2  2  0
  2  3  1  0
  3  4  1  0
  4  5  1  0
  5  6  2  0
  6  7  1  0
  7  8  2  0
  8  9  1  0
  9 10  1  0
 10 11  2  0
 11 12  1  0
 12 13  1  0
  2 14  1  0
 14 15  1  0
 15 16  1  0
 16 17  1  0
 17 18  2  0
 18 19  1  0
 19 20  2  0
 20 21  1  0
 21 22  2  0
 22 23  1  0
 23 24  2  0
 24 25  1  0
  8  4  1  0
 13  9  2  0
 25 17  1  0
 24 19  1  0
  3 26  1  0
  3 27  1  0
 10 28  1  0
 11 29  1  0
 13 30  1  0
 14 31  1  0
 15 32  1  0
 15 33  1  0
 16 34  1  0
 16 35  1  0
 20 36  1  0
 21 37  1  0
 22 38  1  0
 23 39  1  0
 25 40  1  0
M  END
>  <Energy>  (29) 
36.1547875419908

>  <compound_id>  (29) 
4895

>  <target_id>  (29) 
1

>  <reference_id>  (29) 
94

>  <inspiration_ids>  (29) 
[94, 120]

>  <energy_score>  (29) 
-30.329785191339113

>  <distance_score>  (29) 
14.312553053205235

>  <path>  (29) 
/opt/xchem-fragalysis-2/maxwin/BulkDock/SCRATCH/511016/C4895-P94/C4895-P94.minimised.mol

>  <scratch_subdir>  (29) 
/opt/xchem-fragalysis-2/maxwin/BulkDock/SCRATCH/511016/C4895-P94

>  <fragmenstein_runtime>  (29) 
41.44114112854004

>  <fragmenstein_outcome>  (29) 
too moved

>  <fragmenstein_mode>  (29) 
expansion

>  <fragmenstein_error>  (29) 


$$$$
C4895-P120
     RDKit          3D

 40 43  0  0  0  0  0  0  0  0999 V2000
    8.2232  -11.6380   15.0944 O   0  0  0  0  0  0  0  0  0  0  0  0
    7.5463  -11.2310   14.1897 C   0  0  0  0  0  0  0  0  0  0  0  0
    6.5532  -12.2297   13.4167 C   0  0  0  0  0  0  0  0  0  0  0  0
    6.9433  -13.6778   13.2043 N   0  0  0  0  0  0  0  0  0  0  0  0
    8.0134  -13.7574   12.3554 N   0  0  0  0  0  0  0  0  0  0  0  0
    7.4760  -14.0415   11.1741 N   0  0  0  0  0  0  0  0  0  0  0  0
    6.1903  -14.5084   11.3201 N   0  0  0  0  0  0  0  0  0  0  0  0
    6.0182  -14.6506   12.6272 C   0  0  0  0  0  0  0  0  0  0  0  0
    5.1405  -16.0122   13.1499 C   0  0  0  0  0  0  0  0  0  0  0  0
    5.2154  -16.8282   14.3387 C   0  0  0  0  0  0  0  0  0  0  0  0
    4.3632  -17.9228   14.3080 C   0  0  0  0  0  0  0  0  0  0  0  0
    3.5465  -18.0649   12.8232 S   0  0  0  0  0  0  0  0  0  0  0  0
    4.2277  -16.5874   12.2744 C   0  0  0  0  0  0  0  0  0  0  0  0
    7.3661   -9.8594   13.6637 N   0  0  0  0  0  0  0  0  0  0  0  0
    7.9010   -8.5070   14.1644 C   0  0  0  0  0  0  0  0  0  0  0  0
    9.4482   -8.2328   15.0193 C   0  0  0  0  0  0  0  0  0  0  0  0
   10.6839   -6.6585   15.1880 C   0  0  0  0  0  0  0  0  0  0  0  0
   10.4568   -5.2470   14.4891 N   0  0  0  0  0  0  0  0  0  0  0  0
   11.1768   -4.1813   15.1910 C   0  0  0  0  0  0  0  0  0  0  0  0
   11.3066   -2.8134   14.8908 C   0  0  0  0  0  0  0  0  0  0  0  0
   12.1722   -2.0034   15.6293 C   0  0  0  0  0  0  0  0  0  0  0  0
   12.9014   -2.5535   16.6730 C   0  0  0  0  0  0  0  0  0  0  0  0
   12.7818   -3.9135   17.0025 C   0  0  0  0  0  0  0  0  0  0  0  0
   11.9238   -4.7246   16.2353 C   0  0  0  0  0  0  0  0  0  0  0  0
   11.7294   -6.1571   16.1952 N   0  0  0  0  0  0  0  0  0  0  0  0
    5.6047  -12.2472   13.9582 H   0  0  0  0  0  0  0  0  0  0  0  0
    6.3574  -11.8395   12.4098 H   0  0  0  0  0  0  0  0  0  0  0  0
    5.9191  -16.6817   15.1440 H   0  0  0  0  0  0  0  0  0  0  0  0
    4.2115  -18.7102   15.0277 H   0  0  0  0  0  0  0  0  0  0  0  0
    3.9640  -16.2332   11.2857 H   0  0  0  0  0  0  0  0  0  0  0  0
    6.6532   -9.8702   12.9433 H   0  0  0  0  0  0  0  0  0  0  0  0
    7.0063   -8.1510   14.6737 H   0  0  0  0  0  0  0  0  0  0  0  0
    7.8813   -7.9433   13.2311 H   0  0  0  0  0  0  0  0  0  0  0  0
    9.8582   -9.1753   14.5929 H   0  0  0  0  0  0  0  0  0  0  0  0
    9.6204   -8.9410   15.8477 H   0  0  0  0  0  0  0  0  0  0  0  0
   10.7778   -2.4047   14.0504 H   0  0  0  0  0  0  0  0  0  0  0  0
   12.2833   -0.9548   15.3690 H   0  0  0  0  0  0  0  0  0  0  0  0
   13.5796   -1.9255   17.2464 H   0  0  0  0  0  0  0  0  0  0  0  0
   13.3426   -4.2976   17.8432 H   0  0  0  0  0  0  0  0  0  0  0  0
   12.4415   -6.7992   16.4868 H   0  0  0  0  0  0  0  0  0  0  0  0
  1  2  2  0
  2  3  1  0
  3  4  1  0
  4  5  1  0
  5  6  2  0
  6  7  1  0
  7  8  2  0
  8  9  1  0
  9 10  1  0
 10 11  2  0
 11 12  1  0
 12 13  1  0
  2 14  1  0
 14 15  1  0
 15 16  1  0
 16 17  1  0
 17 18  2  0
 18 19  1  0
 19 20  2  0
 20 21  1  0
 21 22  2  0
 22 23  1  0
 23 24  2  0
 24 25  1  0
  8  4  1  0
 13  9  2  0
 25 17  1  0
 24 19  1  0
  3 26  1  0
  3 27  1  0
 10 28  1  0
 11 29  1  0
 13 30  1  0
 14 31  1  0
 15 32  1  0
 15 33  1  0
 16 34  1  0
 16 35  1  0
 20 36  1  0
 21 37  1  0
 22 38  1  0
 23 39  1  0
 25 40  1  0
M  END
>  <Energy>  (30) 
265.37567916968908

>  <compound_id>  (30) 
4895

>  <target_id>  (30) 
1

>  <reference_id>  (30) 
120

>  <inspiration_ids>  (30) 
[94, 120]

>  <energy_score>  (30) 
198.89110643636099

>  <distance_score>  (30) 
15.743464132167379

>  <path>  (30) 
/opt/xchem-fragalysis-2/maxwin/BulkDock/SCRATCH/511016/C4895-P120/C4895-P120.minimised.mol

>  <scratch_subdir>  (30) 
/opt/xchem-fragalysis-2/maxwin/BulkDock/SCRATCH/511016/C4895-P120

>  <fragmenstein_runtime>  (30) 
33.50902986526489

>  <fragmenstein_outcome>  (30) 
too moved

>  <fragmenstein_mode>  (30) 
expansion

>  <fragmenstein_error>  (30) 


$$$$
C4895-P94
     RDKit          3D

 40 43  0  0  0  0  0  0  0  0999 V2000
    1.5630   -6.6984   23.3279 O   0  0  0  0  0  0  0  0  0  0  0  0
    0.6629   -5.9998   22.9421 C   0  0  0  0  0  0  0  0  0  0  0  0
   -0.7579   -6.2347   23.6354 C   0  0  0  0  0  0  0  0  0  0  0  0
   -1.7782   -6.8926   22.8260 N   0  0  0  0  0  0  0  0  0  0  0  0
   -1.8720   -6.4623   21.5471 N   0  0  0  0  0  0  0  0  0  0  0  0
   -2.8419   -7.1603   20.9935 N   0  0  0  0  0  0  0  0  0  0  0  0
   -3.4378   -7.9700   21.9094 N   0  0  0  0  0  0  0  0  0  0  0  0
   -2.8383   -7.7791   23.0767 C   0  0  0  0  0  0  0  0  0  0  0  0
   -3.4779   -8.5715   24.3651 C   0  0  0  0  0  0  0  0  0  0  0  0
   -3.1364   -8.5294   25.7513 C   0  0  0  0  0  0  0  0  0  0  0  0
   -3.8918   -9.3993   26.5257 C   0  0  0  0  0  0  0  0  0  0  0  0
   -5.0726  -10.2207   25.6081 S   0  0  0  0  0  0  0  0  0  0  0  0
   -4.5446   -9.4441   24.1736 C   0  0  0  0  0  0  0  0  0  0  0  0
    0.6532   -4.9148   21.9641 N   0  0  0  0  0  0  0  0  0  0  0  0
    1.7342   -4.3928   21.0584 C   0  0  0  0  0  0  0  0  0  0  0  0
    3.0430   -3.7831   21.6555 C   0  0  0  0  0  0  0  0  0  0  0  0
    3.8034   -2.7870   20.7710 C   0  0  0  0  0  0  0  0  0  0  0  0
    3.5520   -2.4104   19.5291 N   0  0  0  0  0  0  0  0  0  0  0  0
    4.4247   -1.3659   19.2444 C   0  0  0  0  0  0  0  0  0  0  0  0
    4.5567   -0.5661   18.0912 C   0  0  0  0  0  0  0  0  0  0  0  0
    5.4834    0.4853   18.0844 C   0  0  0  0  0  0  0  0  0  0  0  0
    6.2524    0.7475   19.2166 C   0  0  0  0  0  0  0  0  0  0  0  0
    6.1701   -0.0591   20.3640 C   0  0  0  0  0  0  0  0  0  0  0  0
    5.2506   -1.1129   20.3313 C   0  0  0  0  0  0  0  0  0  0  0  0
    4.8797   -2.0607   21.2588 N   0  0  0  0  0  0  0  0  0  0  0  0
   -0.6090   -6.8485   24.5294 H   0  0  0  0  0  0  0  0  0  0  0  0
   -1.1655   -5.2657   23.9430 H   0  0  0  0  0  0  0  0  0  0  0  0
   -2.3603   -7.9065   26.1770 H   0  0  0  0  0  0  0  0  0  0  0  0
   -3.8209   -9.5685   27.5919 H   0  0  0  0  0  0  0  0  0  0  0  0
   -5.0409   -9.6774   23.2395 H   0  0  0  0  0  0  0  0  0  0  0  0
   -0.3045   -4.6015   21.8247 H   0  0  0  0  0  0  0  0  0  0  0  0
    1.2328   -3.6357   20.4446 H   0  0  0  0  0  0  0  0  0  0  0  0
    2.0016   -5.2220   20.3942 H   0  0  0  0  0  0  0  0  0  0  0  0
    2.7782   -3.2587   22.5827 H   0  0  0  0  0  0  0  0  0  0  0  0
    3.7196   -4.5990   21.9360 H   0  0  0  0  0  0  0  0  0  0  0  0
    3.9206   -0.7560   17.2324 H   0  0  0  0  0  0  0  0  0  0  0  0
    5.5624    1.1217   17.2058 H   0  0  0  0  0  0  0  0  0  0  0  0
    6.8993    1.6192   19.2120 H   0  0  0  0  0  0  0  0  0  0  0  0
    6.7614    0.1564   21.2475 H   0  0  0  0  0  0  0  0  0  0  0  0
    5.2463   -2.1393   22.1956 H   0  0  0  0  0  0  0  0  0  0  0  0
  1  2  2  0
  2  3  1  0
  3  4  1  0
  4  5  1  0
  5  6  2  0
  6  7  1  0
  7  8  2  0
  8  9  1  0
  9 10  1  0
 10 11  2  0
 11 12  1  0
 12 13  1  0
  2 14  1  0
 14 15  1  0
 15 16  1  0
 16 17  1  0
 17 18  2  0
 18 19  1  0
 19 20  2  0
 20 21  1  0
 21 22  2  0
 22 23  1  0
 23 24  2  0
 24 25  1  0
  8  4  1  0
 13  9  2  0
 25 17  1  0
 24 19  1  0
  3 26  1  0
  3 27  1  0
 10 28  1  0
 11 29  1  0
 13 30  1  0
 14 31  1  0
 15 32  1  0
 15 33  1  0
 16 34  1  0
 16 35  1  0
 20 36  1  0
 21 37  1  0
 22 38  1  0
 23 39  1  0
 25 40  1  0
M  END
>  <Energy>  (31) 
36.1547875419908

>  <compound_id>  (31) 
4895

>  <target_id>  (31) 
1

>  <reference_id>  (31) 
94

>  <inspiration_ids>  (31) 
[94, 120]

>  <energy_score>  (31) 
-30.329785191339113

>  <distance_score>  (31) 
14.312553053205235

>  <path>  (31) 
/opt/xchem-fragalysis-2/maxwin/BulkDock/SCRATCH/511016/C4895-P94/C4895-P94.minimised.mol

>  <scratch_subdir>  (31) 
/opt/xchem-fragalysis-2/maxwin/BulkDock/SCRATCH/511016/C4895-P94

>  <fragmenstein_runtime>  (31) 
40.967679262161255

>  <fragmenstein_outcome>  (31) 
too moved

>  <fragmenstein_mode>  (31) 
expansion

>  <fragmenstein_error>  (31) 


$$$$
C4895-P120
     RDKit          3D

 40 43  0  0  0  0  0  0  0  0999 V2000
    8.2232  -11.6380   15.0944 O   0  0  0  0  0  0  0  0  0  0  0  0
    7.5463  -11.2310   14.1897 C   0  0  0  0  0  0  0  0  0  0  0  0
    6.5532  -12.2297   13.4167 C   0  0  0  0  0  0  0  0  0  0  0  0
    6.9433  -13.6778   13.2043 N   0  0  0  0  0  0  0  0  0  0  0  0
    8.0134  -13.7574   12.3554 N   0  0  0  0  0  0  0  0  0  0  0  0
    7.4760  -14.0415   11.1741 N   0  0  0  0  0  0  0  0  0  0  0  0
    6.1903  -14.5084   11.3201 N   0  0  0  0  0  0  0  0  0  0  0  0
    6.0182  -14.6506   12.6272 C   0  0  0  0  0  0  0  0  0  0  0  0
    5.1405  -16.0122   13.1499 C   0  0  0  0  0  0  0  0  0  0  0  0
    5.2154  -16.8282   14.3387 C   0  0  0  0  0  0  0  0  0  0  0  0
    4.3632  -17.9228   14.3080 C   0  0  0  0  0  0  0  0  0  0  0  0
    3.5465  -18.0649   12.8232 S   0  0  0  0  0  0  0  0  0  0  0  0
    4.2277  -16.5874   12.2744 C   0  0  0  0  0  0  0  0  0  0  0  0
    7.3661   -9.8594   13.6637 N   0  0  0  0  0  0  0  0  0  0  0  0
    7.9010   -8.5070   14.1644 C   0  0  0  0  0  0  0  0  0  0  0  0
    9.4482   -8.2328   15.0193 C   0  0  0  0  0  0  0  0  0  0  0  0
   10.6839   -6.6585   15.1880 C   0  0  0  0  0  0  0  0  0  0  0  0
   10.4568   -5.2470   14.4891 N   0  0  0  0  0  0  0  0  0  0  0  0
   11.1768   -4.1813   15.1910 C   0  0  0  0  0  0  0  0  0  0  0  0
   11.3066   -2.8134   14.8908 C   0  0  0  0  0  0  0  0  0  0  0  0
   12.1722   -2.0034   15.6293 C   0  0  0  0  0  0  0  0  0  0  0  0
   12.9014   -2.5535   16.6730 C   0  0  0  0  0  0  0  0  0  0  0  0
   12.7818   -3.9135   17.0025 C   0  0  0  0  0  0  0  0  0  0  0  0
   11.9238   -4.7246   16.2353 C   0  0  0  0  0  0  0  0  0  0  0  0
   11.7294   -6.1571   16.1952 N   0  0  0  0  0  0  0  0  0  0  0  0
    5.6047  -12.2472   13.9582 H   0  0  0  0  0  0  0  0  0  0  0  0
    6.3574  -11.8395   12.4098 H   0  0  0  0  0  0  0  0  0  0  0  0
    5.9191  -16.6817   15.1440 H   0  0  0  0  0  0  0  0  0  0  0  0
    4.2115  -18.7102   15.0277 H   0  0  0  0  0  0  0  0  0  0  0  0
    3.9640  -16.2332   11.2857 H   0  0  0  0  0  0  0  0  0  0  0  0
    6.6532   -9.8702   12.9433 H   0  0  0  0  0  0  0  0  0  0  0  0
    7.0063   -8.1510   14.6737 H   0  0  0  0  0  0  0  0  0  0  0  0
    7.8813   -7.9433   13.2311 H   0  0  0  0  0  0  0  0  0  0  0  0
    9.8582   -9.1753   14.5929 H   0  0  0  0  0  0  0  0  0  0  0  0
    9.6204   -8.9410   15.8477 H   0  0  0  0  0  0  0  0  0  0  0  0
   10.7778   -2.4047   14.0504 H   0  0  0  0  0  0  0  0  0  0  0  0
   12.2833   -0.9548   15.3690 H   0  0  0  0  0  0  0  0  0  0  0  0
   13.5796   -1.9255   17.2464 H   0  0  0  0  0  0  0  0  0  0  0  0
   13.3426   -4.2976   17.8432 H   0  0  0  0  0  0  0  0  0  0  0  0
   12.4415   -6.7992   16.4868 H   0  0  0  0  0  0  0  0  0  0  0  0
  1  2  2  0
  2  3  1  0
  3  4  1  0
  4  5  1  0
  5  6  2  0
  6  7  1  0
  7  8  2  0
  8  9  1  0
  9 10  1  0
 10 11  2  0
 11 12  1  0
 12 13  1  0
  2 14  1  0
 14 15  1  0
 15 16  1  0
 16 17  1  0
 17 18  2  0
 18 19  1  0
 19 20  2  0
 20 21  1  0
 21 22  2  0
 22 23  1  0
 23 24  2  0
 24 25  1  0
  8  4  1  0
 13  9  2  0
 25 17  1  0
 24 19  1  0
  3 26  1  0
  3 27  1  0
 10 28  1  0
 11 29  1  0
 13 30  1  0
 14 31  1  0
 15 32  1  0
 15 33  1  0
 16 34  1  0
 16 35  1  0
 20 36  1  0
 21 37  1  0
 22 38  1  0
 23 39  1  0
 25 40  1  0
M  END
>  <Energy>  (32) 
265.37567916968908

>  <compound_id>  (32) 
4895

>  <target_id>  (32) 
1

>  <reference_id>  (32) 
120

>  <inspiration_ids>  (32) 
[94, 120]

>  <energy_score>  (32) 
198.89110643636099

>  <distance_score>  (32) 
15.743464132167379

>  <path>  (32) 
/opt/xchem-fragalysis-2/maxwin/BulkDock/SCRATCH/511016/C4895-P120/C4895-P120.minimised.mol

>  <scratch_subdir>  (32) 
/opt/xchem-fragalysis-2/maxwin/BulkDock/SCRATCH/511016/C4895-P120

>  <fragmenstein_runtime>  (32) 
33.3721067905426

>  <fragmenstein_outcome>  (32) 
too moved

>  <fragmenstein_mode>  (32) 
expansion

>  <fragmenstein_error>  (32) 


$$$$
C4903-P94
     RDKit          3D

 41 44  0  0  0  0  0  0  0  0999 V2000
    2.3217  -10.4031   18.4774 O   0  0  0  0  0  0  0  0  0  0  0  0
    2.5459  -11.6189   18.2630 C   0  0  0  0  0  0  0  0  0  0  0  0
    0.5573  -12.9162   18.9499 C   0  0  0  0  0  0  0  0  0  0  0  0
   -1.0834  -13.2273   20.7377 C   0  0  0  0  0  0  0  0  0  0  0  0
   -0.3621  -14.2389   22.2559 C   0  0  0  0  0  0  0  0  0  0  0  0
   -1.3035  -15.0167   24.1641 S   0  0  0  0  0  0  0  0  0  0  0  0
   -3.0992  -15.2252   23.4451 C   0  0  0  0  0  0  0  0  0  0  0  0
   -4.7072  -15.9076   24.9973 C   0  0  0  0  0  0  0  0  0  0  0  0
   -6.5811  -15.7834   24.7764 C   0  0  0  0  0  0  0  0  0  0  0  0
   -7.4855  -16.2178   25.7666 C   0  0  0  0  0  0  0  0  0  0  0  0
   -6.9735  -17.1097   27.1756 S   0  0  0  0  0  0  0  0  0  0  0  0
   -5.0920  -16.9953   26.7266 C   0  0  0  0  0  0  0  0  0  0  0  0
   -2.2837  -14.6072   21.7913 N   0  0  0  0  0  0  0  0  0  0  0  0
    4.2567  -11.7869   17.3122 N   0  0  0  0  0  0  0  0  0  0  0  0
    5.5672  -10.4274   16.5453 C   0  0  0  0  0  0  0  0  0  0  0  0
    6.2568   -8.8456   15.3070 C   0  0  0  0  0  0  0  0  0  0  0  0
    7.8657   -7.7655   14.5244 C   0  0  0  0  0  0  0  0  0  0  0  0
    8.6048   -6.2355   14.4422 N   0  0  0  0  0  0  0  0  0  0  0  0
    8.7503   -4.3605   14.8970 C   0  0  0  0  0  0  0  0  0  0  0  0
    8.2222   -2.9600   14.9079 C   0  0  0  0  0  0  0  0  0  0  0  0
    9.1529   -1.9380   15.1179 C   0  0  0  0  0  0  0  0  0  0  0  0
   10.4706   -2.3281   15.1945 C   0  0  0  0  0  0  0  0  0  0  0  0
   10.7924   -3.6909   14.9207 C   0  0  0  0  0  0  0  0  0  0  0  0
    9.9235   -4.8625   14.5769 C   0  0  0  0  0  0  0  0  0  0  0  0
    8.3068   -6.0036   14.9295 N   0  0  0  0  0  0  0  0  0  0  0  0
    0.6002  -13.7320   18.1254 H   0  0  0  0  0  0  0  0  0  0  0  0
   -0.4711  -12.5107   18.3142 H   0  0  0  0  0  0  0  0  0  0  0  0
    0.5018  -14.8427   22.1569 H   0  0  0  0  0  0  0  0  0  0  0  0
   -6.9753  -15.1544   24.0054 H   0  0  0  0  0  0  0  0  0  0  0  0
   -8.5521  -16.0486   25.7200 H   0  0  0  0  0  0  0  0  0  0  0  0
   -4.3648  -17.3449   27.4967 H   0  0  0  0  0  0  0  0  0  0  0  0
    4.3706  -12.7599   17.0798 H   0  0  0  0  0  0  0  0  0  0  0  0
    6.3627  -11.1529   16.3277 H   0  0  0  0  0  0  0  0  0  0  0  0
    5.7923   -9.9551   17.5090 H   0  0  0  0  0  0  0  0  0  0  0  0
    5.9471   -9.2609   14.3334 H   0  0  0  0  0  0  0  0  0  0  0  0
    5.5667   -8.0216   15.5510 H   0  0  0  0  0  0  0  0  0  0  0  0
    7.1750   -2.7251   14.7480 H   0  0  0  0  0  0  0  0  0  0  0  0
    8.8594   -0.8959   15.1388 H   0  0  0  0  0  0  0  0  0  0  0  0
   11.2681   -1.5985   15.3011 H   0  0  0  0  0  0  0  0  0  0  0  0
   11.8606   -3.8202   14.7367 H   0  0  0  0  0  0  0  0  0  0  0  0
    7.7703   -5.7711   15.7534 H   0  0  0  0  0  0  0  0  0  0  0  0
  1  2  2  0
  2  3  1  0
  3  4  1  0
  4  5  2  0
  5  6  1  0
  6  7  1  0
  7  8  1  0
  8  9  1  0
  9 10  2  0
 10 11  1  0
 11 12  1  0
  7 13  2  0
  2 14  1  0
 14 15  1  0
 15 16  1  0
 16 17  1  0
 17 18  2  0
 18 19  1  0
 19 20  2  0
 20 21  1  0
 21 22  2  0
 22 23  1  0
 23 24  2  0
 24 25  1  0
 13  4  1  0
 25 17  1  0
 12  8  2  0
 24 19  1  0
  3 26  1  0
  3 27  1  0
  5 28  1  0
  9 29  1  0
 10 30  1  0
 12 31  1  0
 14 32  1  0
 15 33  1  0
 15 34  1  0
 16 35  1  0
 16 36  1  0
 20 37  1  0
 21 38  1  0
 22 39  1  0
 23 40  1  0
 25 41  1  0
M  END
>  <Energy>  (33) 
3320.8556143558894

>  <compound_id>  (33) 
4903

>  <target_id>  (33) 
1

>  <reference_id>  (33) 
94

>  <inspiration_ids>  (33) 
[94, 120]

>  <energy_score>  (33) 
3220.8694239672855

>  <distance_score>  (33) 
10.397710532340346

>  <path>  (33) 
/opt/xchem-fragalysis-2/maxwin/BulkDock/SCRATCH/511016/C4903-P94/C4903-P94.minimised.mol

>  <scratch_subdir>  (33) 
/opt/xchem-fragalysis-2/maxwin/BulkDock/SCRATCH/511016/C4903-P94

>  <fragmenstein_runtime>  (33) 
27.621618032455444

>  <fragmenstein_outcome>  (33) 
too moved

>  <fragmenstein_mode>  (33) 
expansion

>  <fragmenstein_error>  (33) 


$$$$
C4903-P120
     RDKit          3D

 41 44  0  0  0  0  0  0  0  0999 V2000
    4.2164  -13.0378   18.3665 O   0  0  0  0  0  0  0  0  0  0  0  0
    5.1050  -12.6552   19.0599 C   0  0  0  0  0  0  0  0  0  0  0  0
    4.6994  -12.5857   20.7087 C   0  0  0  0  0  0  0  0  0  0  0  0
    3.2416  -13.0680   21.9509 C   0  0  0  0  0  0  0  0  0  0  0  0
    3.1023  -12.1232   22.8755 C   0  0  0  0  0  0  0  0  0  0  0  0
    2.1103  -12.4660   24.0841 S   0  0  0  0  0  0  0  0  0  0  0  0
    0.8093  -14.0013   23.8826 C   0  0  0  0  0  0  0  0  0  0  0  0
   -1.0921  -13.7738   24.9708 C   0  0  0  0  0  0  0  0  0  0  0  0
   -2.1222  -14.6288   25.5640 C   0  0  0  0  0  0  0  0  0  0  0  0
   -1.9229  -14.7080   27.0299 C   0  0  0  0  0  0  0  0  0  0  0  0
   -0.9941  -13.4167   27.6754 S   0  0  0  0  0  0  0  0  0  0  0  0
   -1.3091  -12.7820   26.1186 C   0  0  0  0  0  0  0  0  0  0  0  0
    2.3141  -14.3788   23.0307 N   0  0  0  0  0  0  0  0  0  0  0  0
    6.4647  -12.3430   18.7453 N   0  0  0  0  0  0  0  0  0  0  0  0
    7.2203  -12.4882   17.4938 C   0  0  0  0  0  0  0  0  0  0  0  0
    7.8729  -11.2335   16.9083 C   0  0  0  0  0  0  0  0  0  0  0  0
    7.1607  -10.6368   15.7179 C   0  0  0  0  0  0  0  0  0  0  0  0
    7.6640  -10.4639   14.5056 N   0  0  0  0  0  0  0  0  0  0  0  0
    6.8381   -9.5541   13.8738 C   0  0  0  0  0  0  0  0  0  0  0  0
    6.9242   -8.9620   12.6006 C   0  0  0  0  0  0  0  0  0  0  0  0
    5.9459   -8.0426   12.2065 C   0  0  0  0  0  0  0  0  0  0  0  0
    4.8871   -7.7275   13.0597 C   0  0  0  0  0  0  0  0  0  0  0  0
    4.7631   -8.3247   14.3217 C   0  0  0  0  0  0  0  0  0  0  0  0
    5.7601   -9.2317   14.6899 C   0  0  0  0  0  0  0  0  0  0  0  0
    5.9360  -10.0090   15.8128 N   0  0  0  0  0  0  0  0  0  0  0  0
    5.0494  -11.5975   20.9642 H   0  0  0  0  0  0  0  0  0  0  0  0
    5.5419  -13.2828   20.8453 H   0  0  0  0  0  0  0  0  0  0  0  0
    3.6039  -11.2004   22.7279 H   0  0  0  0  0  0  0  0  0  0  0  0
   -2.5383  -15.4497   24.9726 H   0  0  0  0  0  0  0  0  0  0  0  0
   -2.1591  -15.5426   27.6862 H   0  0  0  0  0  0  0  0  0  0  0  0
   -2.1937  -12.1587   26.1798 H   0  0  0  0  0  0  0  0  0  0  0  0
    6.9596  -12.1261   19.6008 H   0  0  0  0  0  0  0  0  0  0  0  0
    8.0108  -13.2070   17.7397 H   0  0  0  0  0  0  0  0  0  0  0  0
    6.5616  -12.9725   16.7641 H   0  0  0  0  0  0  0  0  0  0  0  0
    8.0135  -10.5093   17.7132 H   0  0  0  0  0  0  0  0  0  0  0  0
    8.8784  -11.5058   16.5605 H   0  0  0  0  0  0  0  0  0  0  0  0
    7.7202   -9.2384   11.9194 H   0  0  0  0  0  0  0  0  0  0  0  0
    6.0041   -7.5927   11.2186 H   0  0  0  0  0  0  0  0  0  0  0  0
    4.1290   -7.0208   12.7276 H   0  0  0  0  0  0  0  0  0  0  0  0
    3.9265   -8.0956   14.9714 H   0  0  0  0  0  0  0  0  0  0  0  0
    5.3288  -10.0290   16.6217 H   0  0  0  0  0  0  0  0  0  0  0  0
  1  2  2  0
  2  3  1  0
  3  4  1  0
  4  5  2  0
  5  6  1  0
  6  7  1  0
  7  8  1  0
  8  9  1  0
  9 10  2  0
 10 11  1  0
 11 12  1  0
  7 13  2  0
  2 14  1  0
 14 15  1  0
 15 16  1  0
 16 17  1  0
 17 18  2  0
 18 19  1  0
 19 20  2  0
 20 21  1  0
 21 22  2  0
 22 23  1  0
 23 24  2  0
 24 25  1  0
 13  4  1  0
 25 17  1  0
 12  8  2  0
 24 19  1  0
  3 26  1  0
  3 27  1  0
  5 28  1  0
  9 29  1  0
 10 30  1  0
 12 31  1  0
 14 32  1  0
 15 33  1  0
 15 34  1  0
 16 35  1  0
 16 36  1  0
 20 37  1  0
 21 38  1  0
 22 39  1  0
 23 40  1  0
 25 41  1  0
M  END
>  <Energy>  (34) 
657.45729403842824

>  <compound_id>  (34) 
4903

>  <target_id>  (34) 
1

>  <reference_id>  (34) 
120

>  <inspiration_ids>  (34) 
[94, 120]

>  <energy_score>  (34) 
557.4711036498653

>  <distance_score>  (34) 
13.84117674868094

>  <path>  (34) 
/opt/xchem-fragalysis-2/maxwin/BulkDock/SCRATCH/511016/C4903-P120/C4903-P120.minimised.mol

>  <scratch_subdir>  (34) 
/opt/xchem-fragalysis-2/maxwin/BulkDock/SCRATCH/511016/C4903-P120

>  <fragmenstein_runtime>  (34) 
31.78768229484558

>  <fragmenstein_outcome>  (34) 
too moved

>  <fragmenstein_mode>  (34) 
expansion

>  <fragmenstein_error>  (34) 


$$$$
C4906-P94
     RDKit          3D

 48 51  0  0  0  0  0  0  0  0999 V2000
  -11.6346  -23.2619   23.9292 C   0  0  0  0  0  0  0  0  0  0  0  0
  -12.0333  -22.0105   24.7373 C   0  0  0  0  0  0  0  0  0  0  0  0
  -12.2488  -22.6489   26.6361 C   0  0  0  0  0  0  0  0  0  0  0  0
  -14.0063  -22.6364   27.4936 C   0  0  0  0  0  0  0  0  0  0  0  0
  -15.0989  -23.7499   26.1143 C   0  0  0  0  0  0  0  0  0  0  0  0
  -16.9511  -23.5316   26.4101 C   0  0  0  0  0  0  0  0  0  0  0  0
  -17.5091  -22.9956   28.7312 S   0  0  0  0  0  0  0  0  0  0  0  0
  -15.2213  -22.6309   29.2351 C   0  0  0  0  0  0  0  0  0  0  0  0
  -11.3532  -20.4715   23.9187 N   0  0  0  0  0  0  0  0  0  0  0  0
  -10.1949  -19.8678   22.6222 C   0  0  0  0  0  0  0  0  0  0  0  0
  -11.0504  -18.9381   21.7004 C   0  0  0  0  0  0  0  0  0  0  0  0
  -10.3332  -18.3491   20.4655 C   0  0  0  0  0  0  0  0  0  0  0  0
   -9.3369  -17.2529   20.7827 C   0  0  0  0  0  0  0  0  0  0  0  0
   -8.2056  -17.8276   21.4916 N   0  0  0  0  0  0  0  0  0  0  0  0
   -6.9539  -17.1428   21.3402 C   0  0  0  0  0  0  0  0  0  0  0  0
   -5.6794  -17.4711   21.5627 N   0  0  0  0  0  0  0  0  0  0  0  0
   -4.8657  -16.5607   20.8511 C   0  0  0  0  0  0  0  0  0  0  0  0
   -3.4723  -16.5201   20.5883 C   0  0  0  0  0  0  0  0  0  0  0  0
   -2.9479  -15.5333   19.7250 C   0  0  0  0  0  0  0  0  0  0  0  0
   -3.7713  -14.5462   19.1854 C   0  0  0  0  0  0  0  0  0  0  0  0
   -5.1523  -14.5519   19.4629 C   0  0  0  0  0  0  0  0  0  0  0  0
   -5.6581  -15.5802   20.2815 C   0  0  0  0  0  0  0  0  0  0  0  0
   -6.9282  -15.8975   20.7043 N   0  0  0  0  0  0  0  0  0  0  0  0
   -8.6555  -18.7626   22.6967 C   0  0  0  0  0  0  0  0  0  0  0  0
  -12.4062  -24.0326   24.0307 H   0  0  0  0  0  0  0  0  0  0  0  0
  -10.6909  -23.7118   24.2402 H   0  0  0  0  0  0  0  0  0  0  0  0
  -11.5572  -23.0190   22.8642 H   0  0  0  0  0  0  0  0  0  0  0  0
  -13.0580  -21.8801   24.3516 H   0  0  0  0  0  0  0  0  0  0  0  0
  -12.0051  -23.7177   26.6238 H   0  0  0  0  0  0  0  0  0  0  0  0
  -11.5938  -22.0686   27.2956 H   0  0  0  0  0  0  0  0  0  0  0  0
  -14.6740  -23.9513   25.1342 H   0  0  0  0  0  0  0  0  0  0  0  0
  -17.8220  -23.9062   25.8859 H   0  0  0  0  0  0  0  0  0  0  0  0
  -15.0932  -22.2619   30.2801 H   0  0  0  0  0  0  0  0  0  0  0  0
  -12.2402  -20.2017   23.4704 H   0  0  0  0  0  0  0  0  0  0  0  0
   -9.9185  -20.7814   22.0830 H   0  0  0  0  0  0  0  0  0  0  0  0
  -11.9071  -19.5214   21.3396 H   0  0  0  0  0  0  0  0  0  0  0  0
  -11.4609  -18.1190   22.3040 H   0  0  0  0  0  0  0  0  0  0  0  0
  -11.1037  -17.9276   19.8075 H   0  0  0  0  0  0  0  0  0  0  0  0
   -9.8517  -19.1608   19.9057 H   0  0  0  0  0  0  0  0  0  0  0  0
   -9.8022  -16.4587   21.3782 H   0  0  0  0  0  0  0  0  0  0  0  0
   -9.0435  -16.8309   19.8140 H   0  0  0  0  0  0  0  0  0  0  0  0
   -2.8335  -17.2988   20.9940 H   0  0  0  0  0  0  0  0  0  0  0  0
   -1.9012  -15.5865   19.4484 H   0  0  0  0  0  0  0  0  0  0  0  0
   -3.3573  -13.7890   18.5232 H   0  0  0  0  0  0  0  0  0  0  0  0
   -5.8053  -13.7974   19.0342 H   0  0  0  0  0  0  0  0  0  0  0  0
   -7.7431  -15.3603   20.4682 H   0  0  0  0  0  0  0  0  0  0  0  0
   -7.7852  -19.3833   22.9113 H   0  0  0  0  0  0  0  0  0  0  0  0
   -8.8703  -18.0657   23.5091 H   0  0  0  0  0  0  0  0  0  0  0  0
  1  2  1  0
  2  3  1  0
  3  4  1  0
  4  5  1  0
  5  6  2  0
  6  7  1  0
  7  8  1  0
  2  9  1  0
  9 10  1  0
 10 11  1  0
 11 12  1  0
 12 13  1  0
 13 14  1  0
 14 15  1  0
 15 16  2  0
 16 17  1  0
 17 18  2  0
 18 19  1  0
 19 20  2  0
 20 21  1  0
 21 22  2  0
 22 23  1  0
 14 24  1  0
  8  4  2  0
 24 10  1  0
 23 15  1  0
 22 17  1  0
  1 25  1  0
  1 26  1  0
  1 27  1  0
  2 28  1  0
  3 29  1  0
  3 30  1  0
  5 31  1  0
  6 32  1  0
  8 33  1  0
  9 34  1  0
 10 35  1  0
 11 36  1  0
 11 37  1  0
 12 38  1  0
 12 39  1  0
 13 40  1  0
 13 41  1  0
 18 42  1  0
 19 43  1  0
 20 44  1  0
 21 45  1  0
 23 46  1  0
 24 47  1  0
 24 48  1  0
M  END
>  <Energy>  (35) 
938.22158425242969

>  <compound_id>  (35) 
4906

>  <target_id>  (35) 
1

>  <reference_id>  (35) 
94

>  <inspiration_ids>  (35) 
[94, 120]

>  <energy_score>  (35) 
845.6499708835679

>  <distance_score>  (35) 
22.149626561855726

>  <path>  (35) 
/opt/xchem-fragalysis-2/maxwin/BulkDock/SCRATCH/511016/C4906-P94/C4906-P94.minimised.mol

>  <scratch_subdir>  (35) 
/opt/xchem-fragalysis-2/maxwin/BulkDock/SCRATCH/511016/C4906-P94

>  <fragmenstein_runtime>  (35) 
39.40268921852112

>  <fragmenstein_outcome>  (35) 
too moved

>  <fragmenstein_mode>  (35) 
expansion

>  <fragmenstein_error>  (35) 


$$$$
C4906-P120
     RDKit          3D

 48 51  0  0  0  0  0  0  0  0999 V2000
    3.7391  -18.7471   24.3660 C   0  0  0  0  0  0  0  0  0  0  0  0
    3.8578  -19.4356   23.0068 C   0  0  0  0  0  0  0  0  0  0  0  0
    2.3626  -19.9762   22.6203 C   0  0  0  0  0  0  0  0  0  0  0  0
    1.3122  -20.4554   23.6673 C   0  0  0  0  0  0  0  0  0  0  0  0
    1.4983  -21.3834   24.7522 C   0  0  0  0  0  0  0  0  0  0  0  0
    0.3387  -21.6659   25.4530 C   0  0  0  0  0  0  0  0  0  0  0  0
   -1.0125  -20.8460   24.8147 S   0  0  0  0  0  0  0  0  0  0  0  0
   -0.0381  -20.1138   23.6097 C   0  0  0  0  0  0  0  0  0  0  0  0
    4.5552  -18.5672   21.8341 N   0  0  0  0  0  0  0  0  0  0  0  0
    6.1332  -18.2414   21.6731 C   0  0  0  0  0  0  0  0  0  0  0  0
    6.7637  -17.4851   22.8464 C   0  0  0  0  0  0  0  0  0  0  0  0
    8.2549  -17.1410   22.6293 C   0  0  0  0  0  0  0  0  0  0  0  0
    8.6328  -16.3123   21.4013 C   0  0  0  0  0  0  0  0  0  0  0  0
    7.5151  -16.2033   20.4549 N   0  0  0  0  0  0  0  0  0  0  0  0
    7.7228  -15.2095   19.5044 C   0  0  0  0  0  0  0  0  0  0  0  0
    8.8305  -14.5052   19.3026 N   0  0  0  0  0  0  0  0  0  0  0  0
    8.5143  -13.4769   18.4411 C   0  0  0  0  0  0  0  0  0  0  0  0
    9.3183  -12.4514   17.9028 C   0  0  0  0  0  0  0  0  0  0  0  0
    8.7344  -11.5133   17.0406 C   0  0  0  0  0  0  0  0  0  0  0  0
    7.3699  -11.5734   16.7527 C   0  0  0  0  0  0  0  0  0  0  0  0
    6.5512  -12.5804   17.2949 C   0  0  0  0  0  0  0  0  0  0  0  0
    7.1662  -13.5318   18.1170 C   0  0  0  0  0  0  0  0  0  0  0  0
    6.6904  -14.6411   18.7896 N   0  0  0  0  0  0  0  0  0  0  0  0
    6.7754  -17.4998   20.2393 C   0  0  0  0  0  0  0  0  0  0  0  0
    4.6212  -18.1460   24.5941 H   0  0  0  0  0  0  0  0  0  0  0  0
    3.6378  -19.4807   25.1713 H   0  0  0  0  0  0  0  0  0  0  0  0
    2.8718  -18.1035   24.3813 H   0  0  0  0  0  0  0  0  0  0  0  0
    4.5024  -20.3167   23.1114 H   0  0  0  0  0  0  0  0  0  0  0  0
    2.5055  -20.8069   21.9152 H   0  0  0  0  0  0  0  0  0  0  0  0
    1.8860  -19.1814   22.0337 H   0  0  0  0  0  0  0  0  0  0  0  0
    2.4507  -21.8342   25.0055 H   0  0  0  0  0  0  0  0  0  0  0  0
    0.2272  -22.3233   26.3043 H   0  0  0  0  0  0  0  0  0  0  0  0
   -0.5101  -19.4603   22.8884 H   0  0  0  0  0  0  0  0  0  0  0  0
    4.3227  -19.0881   20.9813 H   0  0  0  0  0  0  0  0  0  0  0  0
    6.5664  -19.2506   21.6433 H   0  0  0  0  0  0  0  0  0  0  0  0
    6.7030  -18.1143   23.7424 H   0  0  0  0  0  0  0  0  0  0  0  0
    6.1667  -16.6039   23.0627 H   0  0  0  0  0  0  0  0  0  0  0  0
    8.8011  -18.0927   22.5679 H   0  0  0  0  0  0  0  0  0  0  0  0
    8.6472  -16.6523   23.5294 H   0  0  0  0  0  0  0  0  0  0  0  0
    8.9602  -15.3226   21.7437 H   0  0  0  0  0  0  0  0  0  0  0  0
    9.4988  -16.7721   20.9068 H   0  0  0  0  0  0  0  0  0  0  0  0
   10.3751  -12.4142   18.1414 H   0  0  0  0  0  0  0  0  0  0  0  0
    9.3499  -10.7433   16.5835 H   0  0  0  0  0  0  0  0  0  0  0  0
    6.9302  -10.8406   16.0794 H   0  0  0  0  0  0  0  0  0  0  0  0
    5.4889  -12.6180   17.0765 H   0  0  0  0  0  0  0  0  0  0  0  0
    5.7145  -14.8776   18.8938 H   0  0  0  0  0  0  0  0  0  0  0  0
    7.4963  -18.2274   19.8407 H   0  0  0  0  0  0  0  0  0  0  0  0
    6.0064  -17.4188   19.4663 H   0  0  0  0  0  0  0  0  0  0  0  0
  1  2  1  0
  2  3  1  0
  3  4  1  0
  4  5  1  0
  5  6  2  0
  6  7  1  0
  7  8  1  0
  2  9  1  0
  9 10  1  0
 10 11  1  0
 11 12  1  0
 12 13  1  0
 13 14  1  0
 14 15  1  0
 15 16  2  0
 16 17  1  0
 17 18  2  0
 18 19  1  0
 19 20  2  0
 20 21  1  0
 21 22  2  0
 22 23  1  0
 14 24  1  0
  8  4  2  0
 24 10  1  0
 23 15  1  0
 22 17  1  0
  1 25  1  0
  1 26  1  0
  1 27  1  0
  2 28  1  0
  3 29  1  0
  3 30  1  0
  5 31  1  0
  6 32  1  0
  8 33  1  0
  9 34  1  0
 10 35  1  0
 11 36  1  0
 11 37  1  0
 12 38  1  0
 12 39  1  0
 13 40  1  0
 13 41  1  0
 18 42  1  0
 19 43  1  0
 20 44  1  0
 21 45  1  0
 23 46  1  0
 24 47  1  0
 24 48  1  0
M  END
>  <Energy>  (36) 
94.02041514481607

>  <compound_id>  (36) 
4906

>  <target_id>  (36) 
1

>  <reference_id>  (36) 
120

>  <inspiration_ids>  (36) 
[94, 120]

>  <energy_score>  (36) 
1.4488017759508125

>  <distance_score>  (36) 
17.54306936864704

>  <path>  (36) 
/opt/xchem-fragalysis-2/maxwin/BulkDock/SCRATCH/511016/C4906-P120/C4906-P120.minimised.mol

>  <scratch_subdir>  (36) 
/opt/xchem-fragalysis-2/maxwin/BulkDock/SCRATCH/511016/C4906-P120

>  <fragmenstein_runtime>  (36) 
31.237428665161133

>  <fragmenstein_outcome>  (36) 
too moved

>  <fragmenstein_mode>  (36) 
expansion

>  <fragmenstein_error>  (36) 


$$$$
C4907-P94
     RDKit          3D

 41 44  0  0  0  0  0  0  0  0999 V2000
    0.5046   -6.3190   22.9671 O   0  0  0  0  0  0  0  0  0  0  0  0
    0.1395   -6.8330   21.9494 C   0  0  0  0  0  0  0  0  0  0  0  0
    0.6690   -6.7439   20.6074 N   0  0  0  0  0  0  0  0  0  0  0  0
    1.8896   -6.0667   20.0782 C   0  0  0  0  0  0  0  0  0  0  0  0
    1.9156   -4.5327   20.2034 C   0  0  0  0  0  0  0  0  0  0  0  0
    3.2580   -3.9547   19.7130 C   0  0  0  0  0  0  0  0  0  0  0  0
    4.3876   -4.4486   20.5238 N   0  0  0  0  0  0  0  0  0  0  0  0
    5.2733   -3.5149   20.9872 C   0  0  0  0  0  0  0  0  0  0  0  0
    5.4315   -2.2707   20.5838 N   0  0  0  0  0  0  0  0  0  0  0  0
    6.3729   -1.7172   21.4122 C   0  0  0  0  0  0  0  0  0  0  0  0
    6.8508   -0.4035   21.4671 C   0  0  0  0  0  0  0  0  0  0  0  0
    7.7698   -0.0728   22.4672 C   0  0  0  0  0  0  0  0  0  0  0  0
    8.2446   -1.0401   23.3553 C   0  0  0  0  0  0  0  0  0  0  0  0
    7.7933   -2.3632   23.3016 C   0  0  0  0  0  0  0  0  0  0  0  0
    6.8461   -2.6523   22.3200 C   0  0  0  0  0  0  0  0  0  0  0  0
    6.1576   -3.7929   22.0050 N   0  0  0  0  0  0  0  0  0  0  0  0
    4.1439   -5.6766   21.2840 C   0  0  0  0  0  0  0  0  0  0  0  0
    3.2283   -6.6624   20.5500 C   0  0  0  0  0  0  0  0  0  0  0  0
   -1.1397   -7.6761   22.0472 C   0  0  0  0  0  0  0  0  0  0  0  0
   -1.6845   -8.6845   21.1602 C   0  0  0  0  0  0  0  0  0  0  0  0
   -2.8800   -9.2424   21.5802 C   0  0  0  0  0  0  0  0  0  0  0  0
   -3.3710   -8.6267   23.0922 S   0  0  0  0  0  0  0  0  0  0  0  0
   -2.0039   -7.5825   23.1428 C   0  0  0  0  0  0  0  0  0  0  0  0
    0.0572   -7.2477   19.9769 H   0  0  0  0  0  0  0  0  0  0  0  0
    1.8250   -6.2862   19.0031 H   0  0  0  0  0  0  0  0  0  0  0  0
    1.7385   -4.2364   21.2450 H   0  0  0  0  0  0  0  0  0  0  0  0
    1.0940   -4.1066   19.6152 H   0  0  0  0  0  0  0  0  0  0  0  0
    3.1826   -2.8609   19.7319 H   0  0  0  0  0  0  0  0  0  0  0  0
    3.4128   -4.2503   18.6692 H   0  0  0  0  0  0  0  0  0  0  0  0
    6.4551    0.3453   20.7949 H   0  0  0  0  0  0  0  0  0  0  0  0
    8.1021    0.9565   22.5789 H   0  0  0  0  0  0  0  0  0  0  0  0
    8.9667   -0.7575   24.1210 H   0  0  0  0  0  0  0  0  0  0  0  0
    8.1500   -3.1102   24.0029 H   0  0  0  0  0  0  0  0  0  0  0  0
    6.2374   -4.6716   22.4877 H   0  0  0  0  0  0  0  0  0  0  0  0
    5.0904   -6.1969   21.4757 H   0  0  0  0  0  0  0  0  0  0  0  0
    3.7016   -5.4295   22.2580 H   0  0  0  0  0  0  0  0  0  0  0  0
    3.0504   -7.5303   21.1951 H   0  0  0  0  0  0  0  0  0  0  0  0
    3.7672   -7.0385   19.6698 H   0  0  0  0  0  0  0  0  0  0  0  0
   -1.2243   -8.9808   20.2284 H   0  0  0  0  0  0  0  0  0  0  0  0
   -3.4771   -9.9874   21.0700 H   0  0  0  0  0  0  0  0  0  0  0  0
   -1.8848   -6.9250   23.9947 H   0  0  0  0  0  0  0  0  0  0  0  0
  1  2  2  0
  2  3  1  0
  3  4  1  0
  4  5  1  0
  5  6  1  0
  6  7  1  0
  7  8  1  0
  8  9  2  0
  9 10  1  0
 10 11  2  0
 11 12  1  0
 12 13  2  0
 13 14  1  0
 14 15  2  0
 15 16  1  0
  7 17  1  0
 17 18  1  0
  2 19  1  0
 19 20  1  0
 20 21  2  0
 21 22  1  0
 22 23  1  0
 18  4  1  0
 23 19  2  0
 16  8  1  0
 15 10  1  0
  3 24  1  0
  4 25  1  0
  5 26  1  0
  5 27  1  0
  6 28  1  0
  6 29  1  0
 11 30  1  0
 12 31  1  0
 13 32  1  0
 14 33  1  0
 16 34  1  0
 17 35  1  0
 17 36  1  0
 18 37  1  0
 18 38  1  0
 20 39  1  0
 21 40  1  0
 23 41  1  0
M  END
>  <Energy>  (37) 
-16.140053949066587

>  <compound_id>  (37) 
4907

>  <target_id>  (37) 
1

>  <reference_id>  (37) 
94

>  <inspiration_ids>  (37) 
[94, 120]

>  <energy_score>  (37) 
-29.10849098355206

>  <distance_score>  (37) 
15.887450572130973

>  <path>  (37) 
/opt/xchem-fragalysis-2/maxwin/BulkDock/SCRATCH/511016/C4907-P94/C4907-P94.minimised.mol

>  <scratch_subdir>  (37) 
/opt/xchem-fragalysis-2/maxwin/BulkDock/SCRATCH/511016/C4907-P94

>  <fragmenstein_runtime>  (37) 
41.46580147743225

>  <fragmenstein_outcome>  (37) 
too moved

>  <fragmenstein_mode>  (37) 
expansion

>  <fragmenstein_error>  (37) 


$$$$
C4907-P120
     RDKit          3D

 41 44  0  0  0  0  0  0  0  0999 V2000
    2.2727   -5.6026   25.8354 O   0  0  0  0  0  0  0  0  0  0  0  0
    3.0604   -6.4861   26.0051 C   0  0  0  0  0  0  0  0  0  0  0  0
    4.3823   -6.6987   25.4331 N   0  0  0  0  0  0  0  0  0  0  0  0
    5.2147   -5.8321   24.5291 C   0  0  0  0  0  0  0  0  0  0  0  0
    5.7002   -6.5145   23.2312 C   0  0  0  0  0  0  0  0  0  0  0  0
    6.4406   -5.5240   22.2976 C   0  0  0  0  0  0  0  0  0  0  0  0
    7.3891   -4.6669   23.0325 N   0  0  0  0  0  0  0  0  0  0  0  0
    7.4736   -3.3687   22.6341 C   0  0  0  0  0  0  0  0  0  0  0  0
    7.0258   -2.8586   21.5097 N   0  0  0  0  0  0  0  0  0  0  0  0
    7.0815   -1.5026   21.6624 C   0  0  0  0  0  0  0  0  0  0  0  0
    6.5890   -0.4945   20.8273 C   0  0  0  0  0  0  0  0  0  0  0  0
    6.7226    0.8336   21.2469 C   0  0  0  0  0  0  0  0  0  0  0  0
    7.3792    1.1473   22.4400 C   0  0  0  0  0  0  0  0  0  0  0  0
    7.8884    0.1512   23.2793 C   0  0  0  0  0  0  0  0  0  0  0  0
    7.6948   -1.1631   22.8591 C   0  0  0  0  0  0  0  0  0  0  0  0
    7.9962   -2.3741   23.4274 N   0  0  0  0  0  0  0  0  0  0  0  0
    7.6900   -5.0909   24.3916 C   0  0  0  0  0  0  0  0  0  0  0  0
    6.4074   -5.1481   25.2413 C   0  0  0  0  0  0  0  0  0  0  0  0
    2.5544   -7.5889   26.9498 C   0  0  0  0  0  0  0  0  0  0  0  0
    3.2230   -8.6827   27.6212 C   0  0  0  0  0  0  0  0  0  0  0  0
    2.3970   -9.4540   28.4296 C   0  0  0  0  0  0  0  0  0  0  0  0
    0.7777   -8.9282   28.3866 S   0  0  0  0  0  0  0  0  0  0  0  0
    1.2025   -7.6401   27.3271 C   0  0  0  0  0  0  0  0  0  0  0  0
    4.8016   -7.5099   25.8643 H   0  0  0  0  0  0  0  0  0  0  0  0
    4.5267   -5.0313   24.2250 H   0  0  0  0  0  0  0  0  0  0  0  0
    6.3592   -7.3548   23.4850 H   0  0  0  0  0  0  0  0  0  0  0  0
    4.8487   -6.9503   22.6946 H   0  0  0  0  0  0  0  0  0  0  0  0
    5.6745   -4.9243   21.7891 H   0  0  0  0  0  0  0  0  0  0  0  0
    6.9808   -6.0835   21.5253 H   0  0  0  0  0  0  0  0  0  0  0  0
    6.0601   -0.7641   19.9205 H   0  0  0  0  0  0  0  0  0  0  0  0
    6.2879    1.6414   20.6659 H   0  0  0  0  0  0  0  0  0  0  0  0
    7.4652    2.1887   22.7482 H   0  0  0  0  0  0  0  0  0  0  0  0
    8.3741    0.3935   24.2188 H   0  0  0  0  0  0  0  0  0  0  0  0
    8.4360   -2.5007   24.3233 H   0  0  0  0  0  0  0  0  0  0  0  0
    8.4416   -4.4662   24.8855 H   0  0  0  0  0  0  0  0  0  0  0  0
    8.1428   -6.0906   24.3550 H   0  0  0  0  0  0  0  0  0  0  0  0
    6.6360   -5.6675   26.1800 H   0  0  0  0  0  0  0  0  0  0  0  0
    6.1084   -4.1301   25.5220 H   0  0  0  0  0  0  0  0  0  0  0  0
    4.2868   -8.8769   27.5535 H   0  0  0  0  0  0  0  0  0  0  0  0
    2.6780  -10.2916   29.0545 H   0  0  0  0  0  0  0  0  0  0  0  0
    0.4252   -6.9539   27.0113 H   0  0  0  0  0  0  0  0  0  0  0  0
  1  2  2  0
  2  3  1  0
  3  4  1  0
  4  5  1  0
  5  6  1  0
  6  7  1  0
  7  8  1  0
  8  9  2  0
  9 10  1  0
 10 11  2  0
 11 12  1  0
 12 13  2  0
 13 14  1  0
 14 15  2  0
 15 16  1  0
  7 17  1  0
 17 18  1  0
  2 19  1  0
 19 20  1  0
 20 21  2  0
 21 22  1  0
 22 23  1  0
 18  4  1  0
 23 19  2  0
 16  8  1  0
 15 10  1  0
  3 24  1  0
  4 25  1  0
  5 26  1  0
  5 27  1  0
  6 28  1  0
  6 29  1  0
 11 30  1  0
 12 31  1  0
 13 32  1  0
 14 33  1  0
 16 34  1  0
 17 35  1  0
 17 36  1  0
 18 37  1  0
 18 38  1  0
 20 39  1  0
 21 40  1  0
 23 41  1  0
M  END
>  <Energy>  (38) 
-9.5066617950095686

>  <compound_id>  (38) 
4907

>  <target_id>  (38) 
1

>  <reference_id>  (38) 
120

>  <inspiration_ids>  (38) 
[94, 120]

>  <energy_score>  (38) 
-22.475098829495664

>  <distance_score>  (38) 
16.080090901696213

>  <path>  (38) 
/opt/xchem-fragalysis-2/maxwin/BulkDock/SCRATCH/511016/C4907-P120/C4907-P120.minimised.mol

>  <scratch_subdir>  (38) 
/opt/xchem-fragalysis-2/maxwin/BulkDock/SCRATCH/511016/C4907-P120

>  <fragmenstein_runtime>  (38) 
44.15230417251587

>  <fragmenstein_outcome>  (38) 
too moved

>  <fragmenstein_mode>  (38) 
expansion

>  <fragmenstein_error>  (38) 


$$$$
C4911-P94
     RDKit          3D

 41 44  0  0  0  0  0  0  0  0999 V2000
   -0.5539   -6.5987   21.3960 O   0  0  0  0  0  0  0  0  0  0  0  0
   -0.1509   -6.0242   22.3649 C   0  0  0  0  0  0  0  0  0  0  0  0
    1.0254   -5.1539   22.5413 N   0  0  0  0  0  0  0  0  0  0  0  0
    2.1236   -4.8027   21.6047 C   0  0  0  0  0  0  0  0  0  0  0  0
    2.4584   -3.3155   21.2498 C   0  0  0  0  0  0  0  0  0  0  0  0
    3.8377   -3.1439   20.5261 C   0  0  0  0  0  0  0  0  0  0  0  0
    3.9476   -2.0415   19.5749 N   0  0  0  0  0  0  0  0  0  0  0  0
    3.2794   -2.0131   18.3759 C   0  0  0  0  0  0  0  0  0  0  0  0
    3.7214   -1.0594   17.5892 N   0  0  0  0  0  0  0  0  0  0  0  0
    4.6929   -0.4090   18.3061 C   0  0  0  0  0  0  0  0  0  0  0  0
    5.4777    0.6949   17.9317 C   0  0  0  0  0  0  0  0  0  0  0  0
    6.3319    1.2561   18.8807 C   0  0  0  0  0  0  0  0  0  0  0  0
    6.4309    0.6978   20.1600 C   0  0  0  0  0  0  0  0  0  0  0  0
    5.7104   -0.4502   20.5285 C   0  0  0  0  0  0  0  0  0  0  0  0
    4.8339   -0.9791   19.5758 C   0  0  0  0  0  0  0  0  0  0  0  0
   -0.9430   -6.3347   23.6654 C   0  0  0  0  0  0  0  0  0  0  0  0
   -0.6664   -5.8676   24.9386 C   0  0  0  0  0  0  0  0  0  0  0  0
   -1.6630   -6.6235   26.1273 S   0  0  0  0  0  0  0  0  0  0  0  0
   -2.4802   -7.5413   24.9156 C   0  0  0  0  0  0  0  0  0  0  0  0
   -3.6227   -8.6916   25.3263 C   0  0  0  0  0  0  0  0  0  0  0  0
   -3.9487   -9.1197   26.6681 C   0  0  0  0  0  0  0  0  0  0  0  0
   -4.9350  -10.0876   26.7123 C   0  0  0  0  0  0  0  0  0  0  0  0
   -5.5440  -10.4244   25.1546 S   0  0  0  0  0  0  0  0  0  0  0  0
   -4.3852   -9.3874   24.4086 C   0  0  0  0  0  0  0  0  0  0  0  0
   -2.0505   -7.2770   23.6868 N   0  0  0  0  0  0  0  0  0  0  0  0
    1.0166   -4.7718   23.4734 H   0  0  0  0  0  0  0  0  0  0  0  0
    1.9320   -5.3490   20.6748 H   0  0  0  0  0  0  0  0  0  0  0  0
    3.0174   -5.2360   22.0669 H   0  0  0  0  0  0  0  0  0  0  0  0
    1.6437   -2.9222   20.6306 H   0  0  0  0  0  0  0  0  0  0  0  0
    2.4647   -2.7156   22.1676 H   0  0  0  0  0  0  0  0  0  0  0  0
    4.0597   -4.0518   19.9521 H   0  0  0  0  0  0  0  0  0  0  0  0
    4.6320   -3.0332   21.2717 H   0  0  0  0  0  0  0  0  0  0  0  0
    2.5122   -2.7318   18.1151 H   0  0  0  0  0  0  0  0  0  0  0  0
    5.3613    1.1292   16.9442 H   0  0  0  0  0  0  0  0  0  0  0  0
    6.8850    2.1547   18.6223 H   0  0  0  0  0  0  0  0  0  0  0  0
    7.0609    1.1757   20.9076 H   0  0  0  0  0  0  0  0  0  0  0  0
    5.7919   -0.8641   21.5275 H   0  0  0  0  0  0  0  0  0  0  0  0
    0.0810   -5.1643   25.2692 H   0  0  0  0  0  0  0  0  0  0  0  0
   -3.4744   -8.7375   27.5635 H   0  0  0  0  0  0  0  0  0  0  0  0
   -5.3534  -10.5732   27.5835 H   0  0  0  0  0  0  0  0  0  0  0  0
   -4.3686   -9.2994   23.3297 H   0  0  0  0  0  0  0  0  0  0  0  0
  1  2  2  0
  2  3  1  0
  3  4  1  0
  4  5  1  0
  5  6  1  0
  6  7  1  0
  7  8  1  0
  8  9  2  0
  9 10  1  0
 10 11  2  0
 11 12  1  0
 12 13  2  0
 13 14  1  0
 14 15  2  0
  2 16  1  0
 16 17  2  0
 17 18  1  0
 18 19  1  0
 19 20  1  0
 20 21  1  0
 21 22  2  0
 22 23  1  0
 23 24  1  0
 19 25  2  0
 15  7  1  0
 25 16  1  0
 15 10  1  0
 24 20  2  0
  3 26  1  0
  4 27  1  0
  4 28  1  0
  5 29  1  0
  5 30  1  0
  6 31  1  0
  6 32  1  0
  8 33  1  0
 11 34  1  0
 12 35  1  0
 13 36  1  0
 14 37  1  0
 17 38  1  0
 21 39  1  0
 22 40  1  0
 24 41  1  0
M  END
>  <Energy>  (39) 
61.416729538647957

>  <compound_id>  (39) 
4911

>  <target_id>  (39) 
1

>  <reference_id>  (39) 
94

>  <inspiration_ids>  (39) 
[94, 120]

>  <energy_score>  (39) 
-30.139683839774477

>  <distance_score>  (39) 
13.50049382845961

>  <path>  (39) 
/opt/xchem-fragalysis-2/maxwin/BulkDock/SCRATCH/511016/C4911-P94/C4911-P94.minimised.mol

>  <scratch_subdir>  (39) 
/opt/xchem-fragalysis-2/maxwin/BulkDock/SCRATCH/511016/C4911-P94

>  <fragmenstein_runtime>  (39) 
56.21067714691162

>  <fragmenstein_outcome>  (39) 
too moved

>  <fragmenstein_mode>  (39) 
expansion

>  <fragmenstein_error>  (39) 


$$$$
C4911-P120
     RDKit          3D

 41 44  0  0  0  0  0  0  0  0999 V2000
    9.6663  -13.7191   23.1376 O   0  0  0  0  0  0  0  0  0  0  0  0
    9.8391  -14.4294   22.1885 C   0  0  0  0  0  0  0  0  0  0  0  0
   10.7085  -14.2545   21.0032 N   0  0  0  0  0  0  0  0  0  0  0  0
   11.7117  -13.1898   20.6711 C   0  0  0  0  0  0  0  0  0  0  0  0
   11.9671  -12.7674   19.1705 C   0  0  0  0  0  0  0  0  0  0  0  0
   13.3435  -12.0170   18.9142 C   0  0  0  0  0  0  0  0  0  0  0  0
   13.6914  -11.6232   17.5311 N   0  0  0  0  0  0  0  0  0  0  0  0
   12.9718  -12.0428   16.4229 C   0  0  0  0  0  0  0  0  0  0  0  0
   12.5080  -11.0988   15.6267 N   0  0  0  0  0  0  0  0  0  0  0  0
   13.1627   -9.9471   15.9805 C   0  0  0  0  0  0  0  0  0  0  0  0
   12.4614   -8.2158   16.0573 C   0  0  0  0  0  0  0  0  0  0  0  0
   12.8605   -6.8892   17.3857 C   0  0  0  0  0  0  0  0  0  0  0  0
   14.5401   -7.4930   18.6113 C   0  0  0  0  0  0  0  0  0  0  0  0
   15.1324   -9.2292   18.4184 C   0  0  0  0  0  0  0  0  0  0  0  0
   14.4145  -10.4188   17.2226 C   0  0  0  0  0  0  0  0  0  0  0  0
    9.0912  -15.7955   22.2849 C   0  0  0  0  0  0  0  0  0  0  0  0
    9.3219  -16.9175   21.5092 C   0  0  0  0  0  0  0  0  0  0  0  0
    8.3393  -18.2515   21.9994 S   0  0  0  0  0  0  0  0  0  0  0  0
    7.6065  -17.3118   23.2515 C   0  0  0  0  0  0  0  0  0  0  0  0
    6.3028  -17.9282   24.1750 C   0  0  0  0  0  0  0  0  0  0  0  0
    5.6041  -17.2404   25.2263 C   0  0  0  0  0  0  0  0  0  0  0  0
    4.5712  -17.9850   25.7751 C   0  0  0  0  0  0  0  0  0  0  0  0
    4.3761  -19.4899   24.9892 S   0  0  0  0  0  0  0  0  0  0  0  0
    5.7163  -19.1672   23.9508 C   0  0  0  0  0  0  0  0  0  0  0  0
    8.0839  -16.0687   23.3090 N   0  0  0  0  0  0  0  0  0  0  0  0
   10.5448  -15.0133   20.3577 H   0  0  0  0  0  0  0  0  0  0  0  0
   12.6538  -13.5697   21.0828 H   0  0  0  0  0  0  0  0  0  0  0  0
   11.4444  -12.3039   21.2575 H   0  0  0  0  0  0  0  0  0  0  0  0
   11.9496  -13.6792   18.5616 H   0  0  0  0  0  0  0  0  0  0  0  0
   11.1340  -12.1419   18.8290 H   0  0  0  0  0  0  0  0  0  0  0  0
   13.3578  -11.1086   19.5241 H   0  0  0  0  0  0  0  0  0  0  0  0
   14.1687  -12.6617   19.2378 H   0  0  0  0  0  0  0  0  0  0  0  0
   12.6604  -13.0763   16.3448 H   0  0  0  0  0  0  0  0  0  0  0  0
   13.0174   -7.7173   15.3067 H   0  0  0  0  0  0  0  0  0  0  0  0
   12.6938   -5.8150   16.9681 H   0  0  0  0  0  0  0  0  0  0  0  0
   15.1081   -6.7998   19.2672 H   0  0  0  0  0  0  0  0  0  0  0  0
   15.8605   -9.6451   19.1102 H   0  0  0  0  0  0  0  0  0  0  0  0
   10.0218  -17.0603   20.7009 H   0  0  0  0  0  0  0  0  0  0  0  0
    5.8647  -16.2455   25.5695 H   0  0  0  0  0  0  0  0  0  0  0  0
    3.9125  -17.7027   26.5849 H   0  0  0  0  0  0  0  0  0  0  0  0
    5.9843  -19.9103   23.2124 H   0  0  0  0  0  0  0  0  0  0  0  0
  1  2  2  0
  2  3  1  0
  3  4  1  0
  4  5  1  0
  5  6  1  0
  6  7  1  0
  7  8  1  0
  8  9  2  0
  9 10  1  0
 10 11  2  0
 11 12  1  0
 12 13  2  0
 13 14  1  0
 14 15  2  0
  2 16  1  0
 16 17  2  0
 17 18  1  0
 18 19  1  0
 19 20  1  0
 20 21  1  0
 21 22  2  0
 22 23  1  0
 23 24  1  0
 19 25  2  0
 15  7  1  0
 25 16  1  0
 15 10  1  0
 24 20  2  0
  3 26  1  0
  4 27  1  0
  4 28  1  0
  5 29  1  0
  5 30  1  0
  6 31  1  0
  6 32  1  0
  8 33  1  0
 11 34  1  0
 12 35  1  0
 13 36  1  0
 14 37  1  0
 17 38  1  0
 21 39  1  0
 22 40  1  0
 24 41  1  0
M  END
>  <Energy>  (40) 
641.28413682910013

>  <compound_id>  (40) 
4911

>  <target_id>  (40) 
1

>  <reference_id>  (40) 
120

>  <inspiration_ids>  (40) 
[94, 120]

>  <energy_score>  (40) 
549.7277234506792

>  <distance_score>  (40) 
14.38575495820495

>  <path>  (40) 
/opt/xchem-fragalysis-2/maxwin/BulkDock/SCRATCH/511016/C4911-P120/C4911-P120.minimised.mol

>  <scratch_subdir>  (40) 
/opt/xchem-fragalysis-2/maxwin/BulkDock/SCRATCH/511016/C4911-P120

>  <fragmenstein_runtime>  (40) 
26.501258611679077

>  <fragmenstein_outcome>  (40) 
too moved

>  <fragmenstein_mode>  (40) 
expansion

>  <fragmenstein_error>  (40) 


$$$$
C4916-P94
     RDKit          3D

 50 53  0  0  0  0  0  0  0  0999 V2000
   10.6694   -8.2131   26.7161 C   0  0  0  0  0  0  0  0  0  0  0  0
    9.7401   -7.0913   26.5879 N   0  0  0  0  0  0  0  0  0  0  0  0
   10.0874   -6.0299   27.5268 C   0  0  0  0  0  0  0  0  0  0  0  0
    9.5193   -6.6704   25.1771 C   0  0  0  0  0  0  0  0  0  0  0  0
    8.1750   -5.8558   24.9966 C   0  0  0  0  0  0  0  0  0  0  0  0
    6.9437   -6.5521   24.5682 N   0  0  0  0  0  0  0  0  0  0  0  0
    5.6171   -6.5322   25.1083 C   0  0  0  0  0  0  0  0  0  0  0  0
    5.1818   -6.0077   26.0956 O   0  0  0  0  0  0  0  0  0  0  0  0
    4.5432   -7.2104   24.3021 C   0  0  0  0  0  0  0  0  0  0  0  0
    4.2394   -7.8681   23.1920 C   0  0  0  0  0  0  0  0  0  0  0  0
    2.5180   -8.4885   22.7443 C   0  0  0  0  0  0  0  0  0  0  0  0
    0.7398   -8.6592   23.0741 C   0  0  0  0  0  0  0  0  0  0  0  0
    0.2945  -10.5923   23.6429 N   0  0  0  0  0  0  0  0  0  0  0  0
   -1.3865   -9.9954   22.9751 C   0  0  0  0  0  0  0  0  0  0  0  0
   -2.3847  -10.3502   24.4629 N   0  0  0  0  0  0  0  0  0  0  0  0
   -1.7190  -11.6614   25.8143 C   0  0  0  0  0  0  0  0  0  0  0  0
   -2.3733  -12.3941   26.8188 C   0  0  0  0  0  0  0  0  0  0  0  0
   -1.6186  -13.2608   27.6097 C   0  0  0  0  0  0  0  0  0  0  0  0
   -0.2328  -13.4545   27.4333 C   0  0  0  0  0  0  0  0  0  0  0  0
    0.6249  -12.7436   26.5184 C   0  0  0  0  0  0  0  0  0  0  0  0
    0.2292  -11.5110   25.6573 C   0  0  0  0  0  0  0  0  0  0  0  0
    1.3688   -7.5876   23.7538 C   0  0  0  0  0  0  0  0  0  0  0  0
    3.1585   -7.0121   24.3102 C   0  0  0  0  0  0  0  0  0  0  0  0
   10.7973   -6.0782   24.5453 C   0  0  0  0  0  0  0  0  0  0  0  0
   11.6198   -6.7894   23.5848 C   0  0  0  0  0  0  0  0  0  0  0  0
   12.6710   -6.0456   23.0952 C   0  0  0  0  0  0  0  0  0  0  0  0
   12.7282   -4.4964   23.8041 S   0  0  0  0  0  0  0  0  0  0  0  0
   11.3532   -4.8265   24.7764 C   0  0  0  0  0  0  0  0  0  0  0  0
   11.6988   -7.9392   26.4614 H   0  0  0  0  0  0  0  0  0  0  0  0
   10.6671   -8.5936   27.7441 H   0  0  0  0  0  0  0  0  0  0  0  0
   10.3647   -9.0509   26.0791 H   0  0  0  0  0  0  0  0  0  0  0  0
    9.9796   -6.3951   28.5549 H   0  0  0  0  0  0  0  0  0  0  0  0
    9.4243   -5.1644   27.4430 H   0  0  0  0  0  0  0  0  0  0  0  0
   11.1202   -5.6850   27.4115 H   0  0  0  0  0  0  0  0  0  0  0  0
    9.3491   -7.6121   24.6586 H   0  0  0  0  0  0  0  0  0  0  0  0
    8.2852   -5.0525   24.2750 H   0  0  0  0  0  0  0  0  0  0  0  0
    7.9127   -5.3507   25.9320 H   0  0  0  0  0  0  0  0  0  0  0  0
    6.9273   -7.0286   23.6680 H   0  0  0  0  0  0  0  0  0  0  0  0
    4.9940   -7.7040   22.4751 H   0  0  0  0  0  0  0  0  0  0  0  0
    3.0282   -9.4222   23.0183 H   0  0  0  0  0  0  0  0  0  0  0  0
   -1.4288   -9.1354   22.3087 H   0  0  0  0  0  0  0  0  0  0  0  0
   -3.4497  -12.3261   26.9292 H   0  0  0  0  0  0  0  0  0  0  0  0
   -2.1357  -13.8772   28.3453 H   0  0  0  0  0  0  0  0  0  0  0  0
    0.2219  -14.2926   27.9688 H   0  0  0  0  0  0  0  0  0  0  0  0
    1.4702  -13.3437   26.1872 H   0  0  0  0  0  0  0  0  0  0  0  0
    0.6433   -6.7554   23.9604 H   0  0  0  0  0  0  0  0  0  0  0  0
    3.1271   -6.0977   25.0161 H   0  0  0  0  0  0  0  0  0  0  0  0
   11.4321   -7.8070   23.2673 H   0  0  0  0  0  0  0  0  0  0  0  0
   13.4142   -6.3386   22.3666 H   0  0  0  0  0  0  0  0  0  0  0  0
   10.9978   -4.0577   25.4488 H   0  0  0  0  0  0  0  0  0  0  0  0
  1  2  1  0
  2  3  1  0
  2  4  1  0
  4  5  1  0
  5  6  1  0
  6  7  1  0
  7  8  2  0
  7  9  1  0
  9 10  2  0
 10 11  1  0
 11 12  2  0
 12 13  1  0
 13 14  1  0
 14 15  2  0
 15 16  1  0
 16 17  2  0
 17 18  1  0
 18 19  2  0
 19 20  1  0
 20 21  2  0
 12 22  1  0
 22 23  2  0
  4 24  1  0
 24 25  1  0
 25 26  2  0
 26 27  1  0
 27 28  1  0
 23  9  1  0
 28 24  2  0
 21 13  1  0
 21 16  1  0
  1 29  1  0
  1 30  1  0
  1 31  1  0
  3 32  1  0
  3 33  1  0
  3 34  1  0
  4 35  1  0
  5 36  1  0
  5 37  1  0
  6 38  1  0
 10 39  1  0
 11 40  1  0
 14 41  1  0
 17 42  1  0
 18 43  1  0
 19 44  1  0
 20 45  1  0
 22 46  1  0
 23 47  1  0
 25 48  1  0
 26 49  1  0
 28 50  1  0
M  END
>  <Energy>  (41) 
1395.9099416759288

>  <compound_id>  (41) 
4916

>  <target_id>  (41) 
1

>  <reference_id>  (41) 
94

>  <inspiration_ids>  (41) 
[94, 120]

>  <energy_score>  (41) 
1223.151053937806

>  <distance_score>  (41) 
15.63631721468117

>  <path>  (41) 
/opt/xchem-fragalysis-2/maxwin/BulkDock/SCRATCH/511016/C4916-P94/C4916-P94.minimised.mol

>  <scratch_subdir>  (41) 
/opt/xchem-fragalysis-2/maxwin/BulkDock/SCRATCH/511016/C4916-P94

>  <fragmenstein_runtime>  (41) 
25.29136848449707

>  <fragmenstein_outcome>  (41) 
too moved

>  <fragmenstein_mode>  (41) 
expansion

>  <fragmenstein_error>  (41) 


$$$$
C4916-P120
     RDKit          3D

 50 53  0  0  0  0  0  0  0  0999 V2000
    9.5782  -10.6071   27.7433 C   0  0  0  0  0  0  0  0  0  0  0  0
    8.7001   -9.8469   26.8560 N   0  0  0  0  0  0  0  0  0  0  0  0
    7.3768   -9.6885   27.4406 C   0  0  0  0  0  0  0  0  0  0  0  0
    8.6708  -10.3550   25.4620 C   0  0  0  0  0  0  0  0  0  0  0  0
    8.4550  -11.9381   25.3276 C   0  0  0  0  0  0  0  0  0  0  0  0
    7.2227  -12.6135   25.8607 N   0  0  0  0  0  0  0  0  0  0  0  0
    6.9885  -13.9947   26.2551 C   0  0  0  0  0  0  0  0  0  0  0  0
    7.7418  -14.9244   26.3295 O   0  0  0  0  0  0  0  0  0  0  0  0
    5.5530  -14.3921   26.5868 C   0  0  0  0  0  0  0  0  0  0  0  0
    5.0778  -14.2862   27.8912 C   0  0  0  0  0  0  0  0  0  0  0  0
    3.8246  -14.8917   28.2938 C   0  0  0  0  0  0  0  0  0  0  0  0
    2.9730  -15.6209   27.4147 C   0  0  0  0  0  0  0  0  0  0  0  0
    1.6952  -16.2595   27.9240 N   0  0  0  0  0  0  0  0  0  0  0  0
    1.1849  -16.0346   29.2084 C   0  0  0  0  0  0  0  0  0  0  0  0
    0.0521  -16.6410   29.4810 N   0  0  0  0  0  0  0  0  0  0  0  0
   -0.2472  -17.3429   28.3566 C   0  0  0  0  0  0  0  0  0  0  0  0
   -1.3711  -18.1754   28.1469 C   0  0  0  0  0  0  0  0  0  0  0  0
   -1.5099  -18.8452   26.9352 C   0  0  0  0  0  0  0  0  0  0  0  0
   -0.5354  -18.6834   25.9544 C   0  0  0  0  0  0  0  0  0  0  0  0
    0.5931  -17.8480   26.1436 C   0  0  0  0  0  0  0  0  0  0  0  0
    0.7378  -17.1552   27.3615 C   0  0  0  0  0  0  0  0  0  0  0  0
    3.4583  -15.6803   26.0880 C   0  0  0  0  0  0  0  0  0  0  0  0
    4.7329  -15.1038   25.6903 C   0  0  0  0  0  0  0  0  0  0  0  0
    9.9368   -9.7558   24.7453 C   0  0  0  0  0  0  0  0  0  0  0  0
   10.8814  -10.4507   23.9028 C   0  0  0  0  0  0  0  0  0  0  0  0
   11.8223   -9.6238   23.3199 C   0  0  0  0  0  0  0  0  0  0  0  0
   11.6414   -8.0022   23.8128 S   0  0  0  0  0  0  0  0  0  0  0  0
   10.3058   -8.4112   24.8071 C   0  0  0  0  0  0  0  0  0  0  0  0
    9.1879  -11.6058   27.9670 H   0  0  0  0  0  0  0  0  0  0  0  0
   10.5827  -10.7132   27.3200 H   0  0  0  0  0  0  0  0  0  0  0  0
    9.7005  -10.0771   28.6948 H   0  0  0  0  0  0  0  0  0  0  0  0
    6.8653  -10.6410   27.6056 H   0  0  0  0  0  0  0  0  0  0  0  0
    6.7442   -9.0569   26.8075 H   0  0  0  0  0  0  0  0  0  0  0  0
    7.4466   -9.1764   28.4072 H   0  0  0  0  0  0  0  0  0  0  0  0
    7.8223   -9.8875   24.9426 H   0  0  0  0  0  0  0  0  0  0  0  0
    8.4582  -12.1882   24.2619 H   0  0  0  0  0  0  0  0  0  0  0  0
    9.3114  -12.4747   25.7526 H   0  0  0  0  0  0  0  0  0  0  0  0
    6.3385  -12.1231   25.8347 H   0  0  0  0  0  0  0  0  0  0  0  0
    5.6928  -13.8085   28.6519 H   0  0  0  0  0  0  0  0  0  0  0  0
    3.5852  -14.7907   29.3501 H   0  0  0  0  0  0  0  0  0  0  0  0
    1.6821  -15.3856   29.9126 H   0  0  0  0  0  0  0  0  0  0  0  0
   -2.1047  -18.2900   28.9385 H   0  0  0  0  0  0  0  0  0  0  0  0
   -2.3637  -19.4939   26.7645 H   0  0  0  0  0  0  0  0  0  0  0  0
   -0.6379  -19.2155   25.0096 H   0  0  0  0  0  0  0  0  0  0  0  0
    1.3283  -17.7612   25.3513 H   0  0  0  0  0  0  0  0  0  0  0  0
    2.8931  -16.2019   25.3204 H   0  0  0  0  0  0  0  0  0  0  0  0
    5.0763  -15.2900   24.6763 H   0  0  0  0  0  0  0  0  0  0  0  0
   10.8516  -11.5152   23.7012 H   0  0  0  0  0  0  0  0  0  0  0  0
   12.6164   -9.9039   22.6412 H   0  0  0  0  0  0  0  0  0  0  0  0
    9.8132   -7.6316   25.3740 H   0  0  0  0  0  0  0  0  0  0  0  0
  1  2  1  0
  2  3  1  0
  2  4  1  0
  4  5  1  0
  5  6  1  0
  6  7  1  0
  7  8  2  0
  7  9  1  0
  9 10  2  0
 10 11  1  0
 11 12  2  0
 12 13  1  0
 13 14  1  0
 14 15  2  0
 15 16  1  0
 16 17  2  0
 17 18  1  0
 18 19  2  0
 19 20  1  0
 20 21  2  0
 12 22  1  0
 22 23  2  0
  4 24  1  0
 24 25  1  0
 25 26  2  0
 26 27  1  0
 27 28  1  0
 23  9  1  0
 28 24  2  0
 21 13  1  0
 21 16  1  0
  1 29  1  0
  1 30  1  0
  1 31  1  0
  3 32  1  0
  3 33  1  0
  3 34  1  0
  4 35  1  0
  5 36  1  0
  5 37  1  0
  6 38  1  0
 10 39  1  0
 11 40  1  0
 14 41  1  0
 17 42  1  0
 18 43  1  0
 19 44  1  0
 20 45  1  0
 22 46  1  0
 23 47  1  0
 25 48  1  0
 26 49  1  0
 28 50  1  0
M  END
>  <Energy>  (42) 
129.14977139083493

>  <compound_id>  (42) 
4916

>  <target_id>  (42) 
1

>  <reference_id>  (42) 
120

>  <inspiration_ids>  (42) 
[94, 120]

>  <energy_score>  (42) 
-43.60911634730837

>  <distance_score>  (42) 
16.568531673990723

>  <path>  (42) 
/opt/xchem-fragalysis-2/maxwin/BulkDock/SCRATCH/511016/C4916-P120/C4916-P120.minimised.mol

>  <scratch_subdir>  (42) 
/opt/xchem-fragalysis-2/maxwin/BulkDock/SCRATCH/511016/C4916-P120

>  <fragmenstein_runtime>  (42) 
18.58750820159912

>  <fragmenstein_outcome>  (42) 
too moved

>  <fragmenstein_mode>  (42) 
expansion

>  <fragmenstein_error>  (42) 


$$$$
C4920-P94
     RDKit          3D

 53 56  0  0  0  0  0  0  0  0999 V2000
    6.1080   -3.1614   28.7765 C   0  0  0  0  0  0  0  0  0  0  0  0
    7.4200   -3.3973   28.0565 C   0  0  0  0  0  0  0  0  0  0  0  0
    7.9587   -2.4976   27.4827 O   0  0  0  0  0  0  0  0  0  0  0  0
    7.8055   -4.7666   28.2204 N   0  0  0  0  0  0  0  0  0  0  0  0
    8.9115   -5.5109   27.6681 C   0  0  0  0  0  0  0  0  0  0  0  0
    8.9091   -5.5586   26.1286 C   0  0  0  0  0  0  0  0  0  0  0  0
    7.7134   -6.1917   25.5156 N   0  0  0  0  0  0  0  0  0  0  0  0
    7.5148   -7.6415   25.8427 C   0  0  0  0  0  0  0  0  0  0  0  0
    6.6021   -8.1620   27.0665 C   0  0  0  0  0  0  0  0  0  0  0  0
    6.6618   -9.5339   27.4675 C   0  0  0  0  0  0  0  0  0  0  0  0
    5.7689  -10.1866   28.4410 C   0  0  0  0  0  0  0  0  0  0  0  0
    4.7254   -9.5033   29.0791 C   0  0  0  0  0  0  0  0  0  0  0  0
    3.8048  -10.1885   30.0056 N   0  0  0  0  0  0  0  0  0  0  0  0
    4.1950  -11.1263   30.9525 C   0  0  0  0  0  0  0  0  0  0  0  0
    3.2294  -11.4958   31.7669 N   0  0  0  0  0  0  0  0  0  0  0  0
    2.1059  -10.8769   31.2948 C   0  0  0  0  0  0  0  0  0  0  0  0
    0.7754  -11.0142   31.7539 C   0  0  0  0  0  0  0  0  0  0  0  0
   -0.2531  -10.4470   31.0074 C   0  0  0  0  0  0  0  0  0  0  0  0
    0.0593   -9.7451   29.8450 C   0  0  0  0  0  0  0  0  0  0  0  0
    1.3764   -9.5425   29.4106 C   0  0  0  0  0  0  0  0  0  0  0  0
    2.4087  -10.1136   30.1558 C   0  0  0  0  0  0  0  0  0  0  0  0
    4.6893   -8.1237   28.7610 C   0  0  0  0  0  0  0  0  0  0  0  0
    5.5914   -7.4778   27.7676 C   0  0  0  0  0  0  0  0  0  0  0  0
    7.7019   -5.8822   24.0486 C   0  0  0  0  0  0  0  0  0  0  0  0
    9.0126   -5.9954   23.2945 C   0  0  0  0  0  0  0  0  0  0  0  0
    9.6046   -7.2159   22.8283 C   0  0  0  0  0  0  0  0  0  0  0  0
   10.8136   -7.0209   22.1981 C   0  0  0  0  0  0  0  0  0  0  0  0
   11.2319   -5.3718   22.1087 S   0  0  0  0  0  0  0  0  0  0  0  0
    9.7922   -4.9135   22.9070 C   0  0  0  0  0  0  0  0  0  0  0  0
    5.8437   -2.1013   28.7198 H   0  0  0  0  0  0  0  0  0  0  0  0
    6.2009   -3.4392   29.8303 H   0  0  0  0  0  0  0  0  0  0  0  0
    5.3145   -3.7460   28.3024 H   0  0  0  0  0  0  0  0  0  0  0  0
    7.0647   -5.2627   28.6973 H   0  0  0  0  0  0  0  0  0  0  0  0
    9.8275   -5.0106   28.0009 H   0  0  0  0  0  0  0  0  0  0  0  0
    8.8972   -6.5141   28.1041 H   0  0  0  0  0  0  0  0  0  0  0  0
    9.8216   -6.0816   25.8171 H   0  0  0  0  0  0  0  0  0  0  0  0
    8.9841   -4.5212   25.7778 H   0  0  0  0  0  0  0  0  0  0  0  0
    7.0320   -8.1231   24.9816 H   0  0  0  0  0  0  0  0  0  0  0  0
    8.4954   -8.1230   25.9510 H   0  0  0  0  0  0  0  0  0  0  0  0
    7.4109  -10.1749   26.9941 H   0  0  0  0  0  0  0  0  0  0  0  0
    5.9326  -11.2507   28.6176 H   0  0  0  0  0  0  0  0  0  0  0  0
    5.2245  -11.4492   31.0372 H   0  0  0  0  0  0  0  0  0  0  0  0
    0.5669  -11.6214   32.6285 H   0  0  0  0  0  0  0  0  0  0  0  0
   -1.2845  -10.5982   31.3115 H   0  0  0  0  0  0  0  0  0  0  0  0
   -0.7157   -9.3259   29.2257 H   0  0  0  0  0  0  0  0  0  0  0  0
    1.5641   -8.9663   28.5169 H   0  0  0  0  0  0  0  0  0  0  0  0
    3.9544   -7.4837   29.2533 H   0  0  0  0  0  0  0  0  0  0  0  0
    5.4248   -6.4239   27.5400 H   0  0  0  0  0  0  0  0  0  0  0  0
    7.3573   -4.8450   23.9624 H   0  0  0  0  0  0  0  0  0  0  0  0
    6.9470   -6.5010   23.5530 H   0  0  0  0  0  0  0  0  0  0  0  0
    9.1750   -8.1985   22.9801 H   0  0  0  0  0  0  0  0  0  0  0  0
   11.4762   -7.7728   21.7946 H   0  0  0  0  0  0  0  0  0  0  0  0
    9.6067   -3.8653   23.0984 H   0  0  0  0  0  0  0  0  0  0  0  0
  1  2  1  0
  2  3  2  0
  2  4  1  0
  4  5  1  0
  5  6  1  0
  6  7  1  0
  7  8  1  0
  8  9  1  0
  9 10  2  0
 10 11  1  0
 11 12  2  0
 12 13  1  0
 13 14  1  0
 14 15  2  0
 15 16  1  0
 16 17  2  0
 17 18  1  0
 18 19  2  0
 19 20  1  0
 20 21  2  0
 12 22  1  0
 22 23  2  0
  7 24  1  0
 24 25  1  0
 25 26  1  0
 26 27  2  0
 27 28  1  0
 28 29  1  0
 23  9  1  0
 29 25  2  0
 21 13  1  0
 21 16  1  0
  1 30  1  0
  1 31  1  0
  1 32  1  0
  4 33  1  0
  5 34  1  0
  5 35  1  0
  6 36  1  0
  6 37  1  0
  8 38  1  0
  8 39  1  0
 10 40  1  0
 11 41  1  0
 14 42  1  0
 17 43  1  0
 18 44  1  0
 19 45  1  0
 20 46  1  0
 22 47  1  0
 23 48  1  0
 24 49  1  0
 24 50  1  0
 26 51  1  0
 27 52  1  0
 29 53  1  0
M  END
>  <Energy>  (43) 
100.74877492876657

>  <compound_id>  (43) 
4920

>  <target_id>  (43) 
1

>  <reference_id>  (43) 
94

>  <inspiration_ids>  (43) 
[94, 120]

>  <energy_score>  (43) 
-20.204618029883704

>  <distance_score>  (43) 
16.97098535599146

>  <path>  (43) 
/opt/xchem-fragalysis-2/maxwin/BulkDock/SCRATCH/511016/C4920-P94/C4920-P94.minimised.mol

>  <scratch_subdir>  (43) 
/opt/xchem-fragalysis-2/maxwin/BulkDock/SCRATCH/511016/C4920-P94

>  <fragmenstein_runtime>  (43) 
60.69253945350647

>  <fragmenstein_outcome>  (43) 
too moved

>  <fragmenstein_mode>  (43) 
expansion

>  <fragmenstein_error>  (43) 


$$$$
C4920-P120
     RDKit          3D

 53 56  0  0  0  0  0  0  0  0999 V2000
    8.5738  -10.0465   19.9438 C   0  0  0  0  0  0  0  0  0  0  0  0
    7.9304  -11.3509   20.3286 C   0  0  0  0  0  0  0  0  0  0  0  0
    8.5862  -12.2244   20.8152 O   0  0  0  0  0  0  0  0  0  0  0  0
    6.5481  -11.3160   19.9535 N   0  0  0  0  0  0  0  0  0  0  0  0
    5.5508  -12.3392   19.9562 C   0  0  0  0  0  0  0  0  0  0  0  0
    4.2507  -12.3942   21.0310 C   0  0  0  0  0  0  0  0  0  0  0  0
    3.7660  -11.6615   22.6789 N   0  0  0  0  0  0  0  0  0  0  0  0
    2.6969  -12.6349   24.0319 C   0  0  0  0  0  0  0  0  0  0  0  0
    1.5527  -13.0210   25.7077 C   0  0  0  0  0  0  0  0  0  0  0  0
    0.3928  -12.4487   26.4690 C   0  0  0  0  0  0  0  0  0  0  0  0
   -0.7549  -13.0958   27.2641 C   0  0  0  0  0  0  0  0  0  0  0  0
   -0.5932  -14.3286   27.8288 C   0  0  0  0  0  0  0  0  0  0  0  0
   -1.7628  -15.5065   27.5110 N   0  0  0  0  0  0  0  0  0  0  0  0
   -2.6977  -15.4579   28.5265 C   0  0  0  0  0  0  0  0  0  0  0  0
   -3.5707  -16.4948   28.3170 N   0  0  0  0  0  0  0  0  0  0  0  0
   -3.1213  -17.7277   27.3015 C   0  0  0  0  0  0  0  0  0  0  0  0
   -3.4404  -19.5695   27.1296 C   0  0  0  0  0  0  0  0  0  0  0  0
   -3.3601  -20.4833   26.1964 C   0  0  0  0  0  0  0  0  0  0  0  0
   -2.3644  -19.7737   25.7230 C   0  0  0  0  0  0  0  0  0  0  0  0
   -1.5354  -18.2891   26.0984 C   0  0  0  0  0  0  0  0  0  0  0  0
   -2.0361  -17.1323   26.8236 C   0  0  0  0  0  0  0  0  0  0  0  0
    0.8112  -14.4557   27.9813 C   0  0  0  0  0  0  0  0  0  0  0  0
    1.8107  -13.8146   26.9677 C   0  0  0  0  0  0  0  0  0  0  0  0
    5.2561  -10.4878   22.8636 C   0  0  0  0  0  0  0  0  0  0  0  0
    6.7231  -10.3973   23.3499 C   0  0  0  0  0  0  0  0  0  0  0  0
    7.6954  -11.3255   23.8192 C   0  0  0  0  0  0  0  0  0  0  0  0
    8.9652  -10.7842   23.9292 C   0  0  0  0  0  0  0  0  0  0  0  0
    9.0137   -9.1286   23.5359 S   0  0  0  0  0  0  0  0  0  0  0  0
    7.3446   -9.1427   23.2093 C   0  0  0  0  0  0  0  0  0  0  0  0
    7.9937   -9.1965   20.3105 H   0  0  0  0  0  0  0  0  0  0  0  0
    9.5850   -9.9896   20.3552 H   0  0  0  0  0  0  0  0  0  0  0  0
    8.6256  -10.0181   18.8553 H   0  0  0  0  0  0  0  0  0  0  0  0
    6.3531  -10.4363   19.4924 H   0  0  0  0  0  0  0  0  0  0  0  0
    6.1784  -13.2394   20.0936 H   0  0  0  0  0  0  0  0  0  0  0  0
    5.1862  -12.4708   18.9298 H   0  0  0  0  0  0  0  0  0  0  0  0
    4.6934  -13.3368   21.0277 H   0  0  0  0  0  0  0  0  0  0  0  0
    3.3920  -13.0186   20.8930 H   0  0  0  0  0  0  0  0  0  0  0  0
    1.8857  -12.0780   23.6209 H   0  0  0  0  0  0  0  0  0  0  0  0
    2.9084  -13.6077   23.6083 H   0  0  0  0  0  0  0  0  0  0  0  0
    0.1573  -11.4214   26.4834 H   0  0  0  0  0  0  0  0  0  0  0  0
   -1.7076  -12.5714   27.2771 H   0  0  0  0  0  0  0  0  0  0  0  0
   -2.6152  -14.8398   29.4240 H   0  0  0  0  0  0  0  0  0  0  0  0
   -3.0108  -20.3965   27.8333 H   0  0  0  0  0  0  0  0  0  0  0  0
   -3.6089  -21.5084   26.0683 H   0  0  0  0  0  0  0  0  0  0  0  0
   -2.3025  -20.2934   24.7472 H   0  0  0  0  0  0  0  0  0  0  0  0
   -0.4797  -18.2937   25.8853 H   0  0  0  0  0  0  0  0  0  0  0  0
    1.2335  -15.2304   28.6258 H   0  0  0  0  0  0  0  0  0  0  0  0
    2.8430  -14.0977   27.2420 H   0  0  0  0  0  0  0  0  0  0  0  0
    4.9045   -9.5294   23.2359 H   0  0  0  0  0  0  0  0  0  0  0  0
    5.5518  -10.5058   21.8368 H   0  0  0  0  0  0  0  0  0  0  0  0
    7.5276  -12.3741   24.0187 H   0  0  0  0  0  0  0  0  0  0  0  0
    9.8705  -11.2998   24.2200 H   0  0  0  0  0  0  0  0  0  0  0  0
    6.8794   -8.2238   22.8741 H   0  0  0  0  0  0  0  0  0  0  0  0
  1  2  1  0
  2  3  2  0
  2  4  1  0
  4  5  1  0
  5  6  1  0
  6  7  1  0
  7  8  1  0
  8  9  1  0
  9 10  2  0
 10 11  1  0
 11 12  2  0
 12 13  1  0
 13 14  1  0
 14 15  2  0
 15 16  1  0
 16 17  2  0
 17 18  1  0
 18 19  2  0
 19 20  1  0
 20 21  2  0
 12 22  1  0
 22 23  2  0
  7 24  1  0
 24 25  1  0
 25 26  1  0
 26 27  2  0
 27 28  1  0
 28 29  1  0
 23  9  1  0
 29 25  2  0
 21 13  1  0
 21 16  1  0
  1 30  1  0
  1 31  1  0
  1 32  1  0
  4 33  1  0
  5 34  1  0
  5 35  1  0
  6 36  1  0
  6 37  1  0
  8 38  1  0
  8 39  1  0
 10 40  1  0
 11 41  1  0
 14 42  1  0
 17 43  1  0
 18 44  1  0
 19 45  1  0
 20 46  1  0
 22 47  1  0
 23 48  1  0
 24 49  1  0
 24 50  1  0
 26 51  1  0
 27 52  1  0
 29 53  1  0
M  END
>  <Energy>  (44) 
1051.2428180907766

>  <compound_id>  (44) 
4920

>  <target_id>  (44) 
1

>  <reference_id>  (44) 
120

>  <inspiration_ids>  (44) 
[94, 120]

>  <energy_score>  (44) 
930.2894251321245

>  <distance_score>  (44) 
14.99141398135309

>  <path>  (44) 
/opt/xchem-fragalysis-2/maxwin/BulkDock/SCRATCH/511016/C4920-P120/C4920-P120.minimised.mol

>  <scratch_subdir>  (44) 
/opt/xchem-fragalysis-2/maxwin/BulkDock/SCRATCH/511016/C4920-P120

>  <fragmenstein_runtime>  (44) 
30.897921323776245

>  <fragmenstein_outcome>  (44) 
too moved

>  <fragmenstein_mode>  (44) 
expansion

>  <fragmenstein_error>  (44) 


$$$$
C4921-P94
     RDKit          3D

 51 54  0  0  0  0  0  0  0  0999 V2000
    5.8141    0.0884   18.9580 C   0  0  0  0  0  0  0  0  0  0  0  0
    5.1619    0.4174   20.2055 N   0  0  0  0  0  0  0  0  0  0  0  0
    5.2172    1.8301   20.5230 C   0  0  0  0  0  0  0  0  0  0  0  0
    5.3422   -0.5809   21.2804 C   0  0  0  0  0  0  0  0  0  0  0  0
    4.1051   -0.5180   22.2567 C   0  0  0  0  0  0  0  0  0  0  0  0
    3.8275   -1.7001   23.1337 N   0  0  0  0  0  0  0  0  0  0  0  0
    2.4727   -1.6065   23.7510 C   0  0  0  0  0  0  0  0  0  0  0  0
    1.8325   -2.8142   24.5174 C   0  0  0  0  0  0  0  0  0  0  0  0
    1.8015   -2.9567   25.9186 C   0  0  0  0  0  0  0  0  0  0  0  0
    1.0121   -3.9975   26.6402 C   0  0  0  0  0  0  0  0  0  0  0  0
    0.2077   -4.9761   26.0021 C   0  0  0  0  0  0  0  0  0  0  0  0
   -0.5489   -6.1223   26.7402 N   0  0  0  0  0  0  0  0  0  0  0  0
   -0.2869   -6.4643   28.0749 C   0  0  0  0  0  0  0  0  0  0  0  0
   -0.9485   -7.5027   28.5439 N   0  0  0  0  0  0  0  0  0  0  0  0
   -1.7843   -7.8793   27.5394 C   0  0  0  0  0  0  0  0  0  0  0  0
   -2.7678   -8.9061   27.5785 C   0  0  0  0  0  0  0  0  0  0  0  0
   -3.5731   -9.1422   26.4660 C   0  0  0  0  0  0  0  0  0  0  0  0
   -3.3887   -8.3568   25.3323 C   0  0  0  0  0  0  0  0  0  0  0  0
   -2.4054   -7.3279   25.2760 C   0  0  0  0  0  0  0  0  0  0  0  0
   -1.5757   -7.0801   26.3908 C   0  0  0  0  0  0  0  0  0  0  0  0
    0.3114   -4.8505   24.6089 C   0  0  0  0  0  0  0  0  0  0  0  0
    1.0643   -3.8049   23.8856 C   0  0  0  0  0  0  0  0  0  0  0  0
    6.6633   -0.5082   22.0285 C   0  0  0  0  0  0  0  0  0  0  0  0
    7.4164   -1.6807   22.3843 C   0  0  0  0  0  0  0  0  0  0  0  0
    8.4384   -1.4307   23.2713 C   0  0  0  0  0  0  0  0  0  0  0  0
    8.6238    0.2351   23.5594 S   0  0  0  0  0  0  0  0  0  0  0  0
    7.2545    0.6027   22.6035 C   0  0  0  0  0  0  0  0  0  0  0  0
    5.5652    0.8102   18.1717 H   0  0  0  0  0  0  0  0  0  0  0  0
    6.8984    0.0627   19.0643 H   0  0  0  0  0  0  0  0  0  0  0  0
    5.4652   -0.8823   18.5965 H   0  0  0  0  0  0  0  0  0  0  0  0
    4.6845    2.4044   19.7558 H   0  0  0  0  0  0  0  0  0  0  0  0
    6.2429    2.2104   20.5510 H   0  0  0  0  0  0  0  0  0  0  0  0
    4.7230    2.0665   21.4699 H   0  0  0  0  0  0  0  0  0  0  0  0
    5.2874   -1.5725   20.8095 H   0  0  0  0  0  0  0  0  0  0  0  0
    4.1836    0.3655   22.9028 H   0  0  0  0  0  0  0  0  0  0  0  0
    3.2166   -0.3760   21.6265 H   0  0  0  0  0  0  0  0  0  0  0  0
    4.5190   -1.7224   23.8824 H   0  0  0  0  0  0  0  0  0  0  0  0
    1.7457   -1.3562   22.9666 H   0  0  0  0  0  0  0  0  0  0  0  0
    2.4695   -0.7550   24.4441 H   0  0  0  0  0  0  0  0  0  0  0  0
    2.3470   -2.2410   26.5351 H   0  0  0  0  0  0  0  0  0  0  0  0
    1.0686   -3.9599   27.7270 H   0  0  0  0  0  0  0  0  0  0  0  0
    0.4448   -5.9130   28.6471 H   0  0  0  0  0  0  0  0  0  0  0  0
   -2.8900   -9.4835   28.4896 H   0  0  0  0  0  0  0  0  0  0  0  0
   -4.3394   -9.9108   26.4948 H   0  0  0  0  0  0  0  0  0  0  0  0
   -4.0314   -8.5077   24.4659 H   0  0  0  0  0  0  0  0  0  0  0  0
   -2.3306   -6.7071   24.3919 H   0  0  0  0  0  0  0  0  0  0  0  0
   -0.1209   -5.6436   24.0278 H   0  0  0  0  0  0  0  0  0  0  0  0
    1.0507   -3.8373   22.7966 H   0  0  0  0  0  0  0  0  0  0  0  0
    7.1599   -2.6825   22.0784 H   0  0  0  0  0  0  0  0  0  0  0  0
    9.1069   -2.1452   23.7360 H   0  0  0  0  0  0  0  0  0  0  0  0
    6.9233    1.6295   22.5839 H   0  0  0  0  0  0  0  0  0  0  0  0
  1  2  1  0
  2  3  1  0
  2  4  1  0
  4  5  1  0
  5  6  1  0
  6  7  1  0
  7  8  1  0
  8  9  2  0
  9 10  1  0
 10 11  2  0
 11 12  1  0
 12 13  1  0
 13 14  2  0
 14 15  1  0
 15 16  2  0
 16 17  1  0
 17 18  2  0
 18 19  1  0
 19 20  2  0
 11 21  1  0
 21 22  2  0
  4 23  1  0
 23 24  1  0
 24 25  2  0
 25 26  1  0
 26 27  1  0
 22  8  1  0
 27 23  2  0
 20 12  1  0
 20 15  1  0
  1 28  1  0
  1 29  1  0
  1 30  1  0
  3 31  1  0
  3 32  1  0
  3 33  1  0
  4 34  1  0
  5 35  1  0
  5 36  1  0
  6 37  1  0
  7 38  1  0
  7 39  1  0
  9 40  1  0
 10 41  1  0
 13 42  1  0
 16 43  1  0
 17 44  1  0
 18 45  1  0
 19 46  1  0
 21 47  1  0
 22 48  1  0
 24 49  1  0
 25 50  1  0
 27 51  1  0
M  END
>  <Energy>  (45) 
143.87863348309432

>  <compound_id>  (45) 
4921

>  <target_id>  (45) 
1

>  <reference_id>  (45) 
94

>  <inspiration_ids>  (45) 
[94, 120]

>  <energy_score>  (45) 
-20.25824478628124

>  <distance_score>  (45) 
16.522067852156983

>  <path>  (45) 
/opt/xchem-fragalysis-2/maxwin/BulkDock/SCRATCH/511016/C4921-P94/C4921-P94.minimised.mol

>  <scratch_subdir>  (45) 
/opt/xchem-fragalysis-2/maxwin/BulkDock/SCRATCH/511016/C4921-P94

>  <fragmenstein_runtime>  (45) 
38.721174001693726

>  <fragmenstein_outcome>  (45) 
too moved

>  <fragmenstein_mode>  (45) 
expansion

>  <fragmenstein_error>  (45) 


$$$$
C4921-P120
     RDKit          3D

 51 54  0  0  0  0  0  0  0  0999 V2000
    2.7160    0.2211   16.5998 C   0  0  0  0  0  0  0  0  0  0  0  0
    2.1055   -1.1073   16.4268 N   0  0  0  0  0  0  0  0  0  0  0  0
    0.9437   -1.1958   17.3079 C   0  0  0  0  0  0  0  0  0  0  0  0
    1.7818   -1.3488   14.9910 C   0  0  0  0  0  0  0  0  0  0  0  0
    0.8534   -2.5842   14.6233 C   0  0  0  0  0  0  0  0  0  0  0  0
   -0.5839   -2.5940   15.0823 N   0  0  0  0  0  0  0  0  0  0  0  0
   -1.4507   -3.4499   14.2153 C   0  0  0  0  0  0  0  0  0  0  0  0
   -2.6428   -4.2965   14.8017 C   0  0  0  0  0  0  0  0  0  0  0  0
   -3.4819   -4.0496   15.9052 C   0  0  0  0  0  0  0  0  0  0  0  0
   -4.4228   -5.0890   16.5048 C   0  0  0  0  0  0  0  0  0  0  0  0
   -4.5604   -6.3975   16.0082 C   0  0  0  0  0  0  0  0  0  0  0  0
   -5.1589   -7.6516   16.7342 N   0  0  0  0  0  0  0  0  0  0  0  0
   -5.5098   -8.8242   16.0481 C   0  0  0  0  0  0  0  0  0  0  0  0
   -5.9843   -9.8073   16.7835 N   0  0  0  0  0  0  0  0  0  0  0  0
   -5.9251   -9.3577   18.0612 C   0  0  0  0  0  0  0  0  0  0  0  0
   -6.2843  -10.0810   19.2282 C   0  0  0  0  0  0  0  0  0  0  0  0
   -6.1145   -9.4955   20.4752 C   0  0  0  0  0  0  0  0  0  0  0  0
   -5.5902   -8.2067   20.5389 C   0  0  0  0  0  0  0  0  0  0  0  0
   -5.2373   -7.4595   19.3775 C   0  0  0  0  0  0  0  0  0  0  0  0
   -5.4204   -8.0336   18.1040 C   0  0  0  0  0  0  0  0  0  0  0  0
   -3.9579   -6.4859   14.7205 C   0  0  0  0  0  0  0  0  0  0  0  0
   -3.0175   -5.4938   14.1565 C   0  0  0  0  0  0  0  0  0  0  0  0
    3.0914   -1.5267   14.2233 C   0  0  0  0  0  0  0  0  0  0  0  0
    4.1966   -2.3064   14.6859 C   0  0  0  0  0  0  0  0  0  0  0  0
    5.3015   -2.1855   13.8823 C   0  0  0  0  0  0  0  0  0  0  0  0
    4.8949   -1.4782   12.3824 S   0  0  0  0  0  0  0  0  0  0  0  0
    3.3624   -1.0089   12.9695 C   0  0  0  0  0  0  0  0  0  0  0  0
    3.0010    0.3769   17.6470 H   0  0  0  0  0  0  0  0  0  0  0  0
    2.0333    1.0277   16.3077 H   0  0  0  0  0  0  0  0  0  0  0  0
    3.6405    0.3277   16.0240 H   0  0  0  0  0  0  0  0  0  0  0  0
    1.1867   -0.8436   18.3177 H   0  0  0  0  0  0  0  0  0  0  0  0
    0.0972   -0.6006   16.9490 H   0  0  0  0  0  0  0  0  0  0  0  0
    0.6436   -2.2378   17.4430 H   0  0  0  0  0  0  0  0  0  0  0  0
    1.2667   -0.4602   14.5966 H   0  0  0  0  0  0  0  0  0  0  0  0
    1.3301   -3.5114   14.9642 H   0  0  0  0  0  0  0  0  0  0  0  0
    0.8374   -2.6359   13.5253 H   0  0  0  0  0  0  0  0  0  0  0  0
   -0.6191   -2.9657   16.0255 H   0  0  0  0  0  0  0  0  0  0  0  0
   -0.8057   -4.1886   13.7210 H   0  0  0  0  0  0  0  0  0  0  0  0
   -1.8757   -2.8107   13.4327 H   0  0  0  0  0  0  0  0  0  0  0  0
   -3.4020   -3.0984   16.4343 H   0  0  0  0  0  0  0  0  0  0  0  0
   -4.9484   -4.8046   17.4180 H   0  0  0  0  0  0  0  0  0  0  0  0
   -5.4138   -8.8823   14.9736 H   0  0  0  0  0  0  0  0  0  0  0  0
   -6.6730  -11.0886   19.1266 H   0  0  0  0  0  0  0  0  0  0  0  0
   -6.3799  -10.0335   21.3793 H   0  0  0  0  0  0  0  0  0  0  0  0
   -5.4422   -7.7408   21.5127 H   0  0  0  0  0  0  0  0  0  0  0  0
   -4.8173   -6.4625   19.4845 H   0  0  0  0  0  0  0  0  0  0  0  0
   -4.0565   -7.4036   14.1369 H   0  0  0  0  0  0  0  0  0  0  0  0
   -2.5389   -5.7646   13.2122 H   0  0  0  0  0  0  0  0  0  0  0  0
    4.1635   -2.8450   15.6197 H   0  0  0  0  0  0  0  0  0  0  0  0
    6.3065   -2.5269   14.0737 H   0  0  0  0  0  0  0  0  0  0  0  0
    2.7124   -0.4097   12.3466 H   0  0  0  0  0  0  0  0  0  0  0  0
  1  2  1  0
  2  3  1  0
  2  4  1  0
  4  5  1  0
  5  6  1  0
  6  7  1  0
  7  8  1  0
  8  9  2  0
  9 10  1  0
 10 11  2  0
 11 12  1  0
 12 13  1  0
 13 14  2  0
 14 15  1  0
 15 16  2  0
 16 17  1  0
 17 18  2  0
 18 19  1  0
 19 20  2  0
 11 21  1  0
 21 22  2  0
  4 23  1  0
 23 24  1  0
 24 25  2  0
 25 26  1  0
 26 27  1  0
 22  8  1  0
 27 23  2  0
 20 12  1  0
 20 15  1  0
  1 28  1  0
  1 29  1  0
  1 30  1  0
  3 31  1  0
  3 32  1  0
  3 33  1  0
  4 34  1  0
  5 35  1  0
  5 36  1  0
  6 37  1  0
  7 38  1  0
  7 39  1  0
  9 40  1  0
 10 41  1  0
 13 42  1  0
 16 43  1  0
 17 44  1  0
 18 45  1  0
 19 46  1  0
 21 47  1  0
 22 48  1  0
 24 49  1  0
 25 50  1  0
 27 51  1  0
M  END
>  <Energy>  (46) 
156.10485827611245

>  <compound_id>  (46) 
4921

>  <target_id>  (46) 
1

>  <reference_id>  (46) 
120

>  <inspiration_ids>  (46) 
[94, 120]

>  <energy_score>  (46) 
-8.03201999325961

>  <distance_score>  (46) 
17.58232099778399

>  <path>  (46) 
/opt/xchem-fragalysis-2/maxwin/BulkDock/SCRATCH/511016/C4921-P120/C4921-P120.minimised.mol

>  <scratch_subdir>  (46) 
/opt/xchem-fragalysis-2/maxwin/BulkDock/SCRATCH/511016/C4921-P120

>  <fragmenstein_runtime>  (46) 
17.57963538169861

>  <fragmenstein_outcome>  (46) 
too moved

>  <fragmenstein_mode>  (46) 
expansion

>  <fragmenstein_error>  (46) 


$$$$
C4930-P94
     RDKit          3D

 45 48  0  0  0  0  0  0  0  0999 V2000
    4.9051   -6.6178   25.3480 O   0  0  0  0  0  0  0  0  0  0  0  0
    5.6405   -7.4437   24.9924 C   0  0  0  0  0  0  0  0  0  0  0  0
    6.8791   -7.3438   24.2133 N   0  0  0  0  0  0  0  0  0  0  0  0
    7.6238   -6.1575   23.7295 C   0  0  0  0  0  0  0  0  0  0  0  0
    9.1673   -6.4154   23.7699 C   0  0  0  0  0  0  0  0  0  0  0  0
   10.1749   -5.4712   23.1351 C   0  0  0  0  0  0  0  0  0  0  0  0
   10.6439   -5.5631   21.9038 N   0  0  0  0  0  0  0  0  0  0  0  0
   11.8424   -4.8595   21.8663 C   0  0  0  0  0  0  0  0  0  0  0  0
   12.7942   -4.6812   20.8393 C   0  0  0  0  0  0  0  0  0  0  0  0
   13.9455   -3.9211   21.0791 C   0  0  0  0  0  0  0  0  0  0  0  0
   14.1771   -3.3896   22.3468 C   0  0  0  0  0  0  0  0  0  0  0  0
   13.2637   -3.5829   23.3989 C   0  0  0  0  0  0  0  0  0  0  0  0
   12.0946   -4.2979   23.1075 C   0  0  0  0  0  0  0  0  0  0  0  0
   10.9897   -4.6251   23.8642 N   0  0  0  0  0  0  0  0  0  0  0  0
    5.6773   -8.9947   25.2913 N   0  0  0  0  0  0  0  0  0  0  0  0
    4.6275   -9.9766   23.7216 C   0  0  0  0  0  0  0  0  0  0  0  0
    2.7867  -11.3620   23.6918 C   0  0  0  0  0  0  0  0  0  0  0  0
    1.7896  -11.5268   25.3793 O   0  0  0  0  0  0  0  0  0  0  0  0
    2.4027  -10.5912   27.0011 C   0  0  0  0  0  0  0  0  0  0  0  0
    2.0719  -10.9385   28.6498 C   0  0  0  0  0  0  0  0  0  0  0  0
    0.7962  -10.5512   29.2914 C   0  0  0  0  0  0  0  0  0  0  0  0
    0.6968  -10.9219   30.6152 C   0  0  0  0  0  0  0  0  0  0  0  0
    2.1676  -11.5641   31.1924 S   0  0  0  0  0  0  0  0  0  0  0  0
    2.9136  -11.4423   29.6363 C   0  0  0  0  0  0  0  0  0  0  0  0
    4.4999  -10.0530   26.6617 C   0  0  0  0  0  0  0  0  0  0  0  0
    7.3112   -8.2577   24.1554 H   0  0  0  0  0  0  0  0  0  0  0  0
    7.2056   -5.8849   22.7624 H   0  0  0  0  0  0  0  0  0  0  0  0
    7.3819   -5.3282   24.4044 H   0  0  0  0  0  0  0  0  0  0  0  0
    9.4467   -6.5438   24.8254 H   0  0  0  0  0  0  0  0  0  0  0  0
    9.3497   -7.4009   23.3170 H   0  0  0  0  0  0  0  0  0  0  0  0
   12.6185   -5.1120   19.8631 H   0  0  0  0  0  0  0  0  0  0  0  0
   14.6614   -3.7569   20.2794 H   0  0  0  0  0  0  0  0  0  0  0  0
   15.0742   -2.8013   22.5253 H   0  0  0  0  0  0  0  0  0  0  0  0
   13.4406   -3.1461   24.3751 H   0  0  0  0  0  0  0  0  0  0  0  0
   10.8989   -4.4280   24.8492 H   0  0  0  0  0  0  0  0  0  0  0  0
    5.4848  -10.5830   23.3087 H   0  0  0  0  0  0  0  0  0  0  0  0
    4.7443   -9.0598   23.1247 H   0  0  0  0  0  0  0  0  0  0  0  0
    3.1610  -12.4551   23.7281 H   0  0  0  0  0  0  0  0  0  0  0  0
    2.1041  -11.7303   22.9517 H   0  0  0  0  0  0  0  0  0  0  0  0
    1.7923   -9.6890   27.4120 H   0  0  0  0  0  0  0  0  0  0  0  0
   -0.0190  -10.0668   28.7665 H   0  0  0  0  0  0  0  0  0  0  0  0
   -0.1472  -10.7972   31.2801 H   0  0  0  0  0  0  0  0  0  0  0  0
    3.9397  -11.7732   29.5535 H   0  0  0  0  0  0  0  0  0  0  0  0
    4.7475   -9.3745   27.5435 H   0  0  0  0  0  0  0  0  0  0  0  0
    5.2428  -10.8115   27.0799 H   0  0  0  0  0  0  0  0  0  0  0  0
  1  2  2  0
  2  3  1  0
  3  4  1  0
  4  5  1  0
  5  6  1  0
  6  7  2  0
  7  8  1  0
  8  9  2  0
  9 10  1  0
 10 11  2  0
 11 12  1  0
 12 13  2  0
 13 14  1  0
  2 15  1  0
 15 16  1  0
 16 17  1  0
 17 18  1  0
 18 19  1  0
 19 20  1  0
 20 21  1  0
 21 22  2  0
 22 23  1  0
 23 24  1  0
 19 25  1  0
 14  6  1  0
 25 15  1  0
 13  8  1  0
 24 20  2  0
  3 26  1  0
  4 27  1  0
  4 28  1  0
  5 29  1  0
  5 30  1  0
  9 31  1  0
 10 32  1  0
 11 33  1  0
 12 34  1  0
 14 35  1  0
 16 36  1  0
 16 37  1  0
 17 38  1  0
 17 39  1  0
 19 40  1  0
 21 41  1  0
 22 42  1  0
 24 43  1  0
 25 44  1  0
 25 45  1  0
M  END
>  <Energy>  (47) 
846.59814717897086

>  <compound_id>  (47) 
4930

>  <target_id>  (47) 
1

>  <reference_id>  (47) 
94

>  <inspiration_ids>  (47) 
[94, 120]

>  <energy_score>  (47) 
792.4811586207384

>  <distance_score>  (47) 
14.153375632710805

>  <path>  (47) 
/opt/xchem-fragalysis-2/maxwin/BulkDock/SCRATCH/511016/C4930-P94/C4930-P94.minimised.mol

>  <scratch_subdir>  (47) 
/opt/xchem-fragalysis-2/maxwin/BulkDock/SCRATCH/511016/C4930-P94

>  <fragmenstein_runtime>  (47) 
42.174981117248535

>  <fragmenstein_outcome>  (47) 
too moved

>  <fragmenstein_mode>  (47) 
expansion

>  <fragmenstein_error>  (47) 


$$$$
C4930-P120
     RDKit          3D

 45 48  0  0  0  0  0  0  0  0999 V2000
    4.5605  -12.1884   19.5775 O   0  0  0  0  0  0  0  0  0  0  0  0
    4.0121  -12.4794   18.5857 C   0  0  0  0  0  0  0  0  0  0  0  0
    3.9157  -11.2966   17.1269 N   0  0  0  0  0  0  0  0  0  0  0  0
    4.4823   -9.3889   16.9533 C   0  0  0  0  0  0  0  0  0  0  0  0
    5.4727   -8.1520   15.7485 C   0  0  0  0  0  0  0  0  0  0  0  0
    6.3764   -6.4494   15.6583 C   0  0  0  0  0  0  0  0  0  0  0  0
    7.0734   -5.5054   16.2588 N   0  0  0  0  0  0  0  0  0  0  0  0
    7.6895   -3.7715   15.6650 C   0  0  0  0  0  0  0  0  0  0  0  0
    7.4728   -2.4175   15.2148 C   0  0  0  0  0  0  0  0  0  0  0  0
    8.6510   -1.6296   15.0828 C   0  0  0  0  0  0  0  0  0  0  0  0
    9.9378   -2.2205   15.0463 C   0  0  0  0  0  0  0  0  0  0  0  0
   10.0549   -3.6226   14.9575 C   0  0  0  0  0  0  0  0  0  0  0  0
    8.7671   -4.3507   15.0806 C   0  0  0  0  0  0  0  0  0  0  0  0
    8.0475   -6.1003   15.1496 N   0  0  0  0  0  0  0  0  0  0  0  0
    3.1675  -13.6218   18.2809 N   0  0  0  0  0  0  0  0  0  0  0  0
    1.8467  -13.7872   18.3618 C   0  0  0  0  0  0  0  0  0  0  0  0
    2.0133  -15.0142   17.7575 C   0  0  0  0  0  0  0  0  0  0  0  0
    0.9328  -16.0003   19.0626 O   0  0  0  0  0  0  0  0  0  0  0  0
    0.9794  -15.6472   20.6606 C   0  0  0  0  0  0  0  0  0  0  0  0
   -0.4067  -14.8063   22.1191 C   0  0  0  0  0  0  0  0  0  0  0  0
   -1.6408  -15.2129   23.4629 C   0  0  0  0  0  0  0  0  0  0  0  0
   -2.4718  -15.2123   24.6107 C   0  0  0  0  0  0  0  0  0  0  0  0
   -1.7626  -13.8045   25.4920 S   0  0  0  0  0  0  0  0  0  0  0  0
   -0.3407  -14.1330   23.6911 C   0  0  0  0  0  0  0  0  0  0  0  0
    2.5806  -14.9190   19.4927 C   0  0  0  0  0  0  0  0  0  0  0  0
    3.4817  -11.7611   16.3545 H   0  0  0  0  0  0  0  0  0  0  0  0
    3.4968   -8.9174   16.9803 H   0  0  0  0  0  0  0  0  0  0  0  0
    4.9224   -9.1209   17.9295 H   0  0  0  0  0  0  0  0  0  0  0  0
    4.5986   -7.8150   15.1619 H   0  0  0  0  0  0  0  0  0  0  0  0
    6.0448   -8.7534   15.0266 H   0  0  0  0  0  0  0  0  0  0  0  0
    6.4996   -1.9532   15.1139 H   0  0  0  0  0  0  0  0  0  0  0  0
    8.5588   -0.5605   14.9010 H   0  0  0  0  0  0  0  0  0  0  0  0
   10.8187   -1.5988   14.9059 H   0  0  0  0  0  0  0  0  0  0  0  0
   10.9904   -4.1188   14.7705 H   0  0  0  0  0  0  0  0  0  0  0  0
    8.7037   -6.8637   15.1240 H   0  0  0  0  0  0  0  0  0  0  0  0
    0.9153  -13.2555   18.4467 H   0  0  0  0  0  0  0  0  0  0  0  0
    1.2939  -13.6733   17.4083 H   0  0  0  0  0  0  0  0  0  0  0  0
    2.8438  -15.6632   17.4830 H   0  0  0  0  0  0  0  0  0  0  0  0
    1.7153  -14.9188   16.6722 H   0  0  0  0  0  0  0  0  0  0  0  0
    1.4389  -14.7659   20.8966 H   0  0  0  0  0  0  0  0  0  0  0  0
   -1.2087  -15.8499   24.1414 H   0  0  0  0  0  0  0  0  0  0  0  0
   -3.3684  -15.7471   24.7534 H   0  0  0  0  0  0  0  0  0  0  0  0
    0.6077  -14.0761   24.1548 H   0  0  0  0  0  0  0  0  0  0  0  0
    3.4824  -15.5208   18.9535 H   0  0  0  0  0  0  0  0  0  0  0  0
    2.7500  -14.1903   20.3426 H   0  0  0  0  0  0  0  0  0  0  0  0
  1  2  2  0
  2  3  1  0
  3  4  1  0
  4  5  1  0
  5  6  1  0
  6  7  2  0
  7  8  1  0
  8  9  2  0
  9 10  1  0
 10 11  2  0
 11 12  1  0
 12 13  2  0
 13 14  1  0
  2 15  1  0
 15 16  1  0
 16 17  1  0
 17 18  1  0
 18 19  1  0
 19 20  1  0
 20 21  1  0
 21 22  2  0
 22 23  1  0
 23 24  1  0
 19 25  1  0
 14  6  1  0
 25 15  1  0
 13  8  1  0
 24 20  2  0
  3 26  1  0
  4 27  1  0
  4 28  1  0
  5 29  1  0
  5 30  1  0
  9 31  1  0
 10 32  1  0
 11 33  1  0
 12 34  1  0
 14 35  1  0
 16 36  1  0
 16 37  1  0
 17 38  1  0
 17 39  1  0
 19 40  1  0
 21 41  1  0
 22 42  1  0
 24 43  1  0
 25 44  1  0
 25 45  1  0
M  END
>  <Energy>  (48) 
1890.6536839991311

>  <compound_id>  (48) 
4930

>  <target_id>  (48) 
1

>  <reference_id>  (48) 
120

>  <inspiration_ids>  (48) 
[94, 120]

>  <energy_score>  (48) 
1836.5366954408996

>  <distance_score>  (48) 
12.218757208855823

>  <path>  (48) 
/opt/xchem-fragalysis-2/maxwin/BulkDock/SCRATCH/511016/C4930-P120/C4930-P120.minimised.mol

>  <scratch_subdir>  (48) 
/opt/xchem-fragalysis-2/maxwin/BulkDock/SCRATCH/511016/C4930-P120

>  <fragmenstein_runtime>  (48) 
45.010891914367676

>  <fragmenstein_outcome>  (48) 
too moved

>  <fragmenstein_mode>  (48) 
expansion

>  <fragmenstein_error>  (48) 


$$$$
C18455-P65
     RDKit          3D

 42 46  0  0  0  0  0  0  0  0999 V2000
   -5.4863  -12.7791   17.4206 O   0  0  0  0  0  0  0  0  0  0  0  0
   -6.1879  -11.8793   17.7905 C   0  0  0  0  0  0  0  0  0  0  0  0
   -6.8224  -12.3094   19.8164 C   0  0  0  0  0  0  0  0  0  0  0  0
   -6.5964  -12.6319   21.8627 N   0  0  0  0  0  0  0  0  0  0  0  0
   -6.7272  -11.9810   23.1127 C   0  0  0  0  0  0  0  0  0  0  0  0
   -5.8654  -12.5658   24.0606 N   0  0  0  0  0  0  0  0  0  0  0  0
   -5.1531  -14.0413   23.6091 C   0  0  0  0  0  0  0  0  0  0  0  0
   -4.5963  -15.7075   23.7648 C   0  0  0  0  0  0  0  0  0  0  0  0
   -5.1936  -16.8953   24.3812 C   0  0  0  0  0  0  0  0  0  0  0  0
   -6.5054  -16.6838   24.6892 C   0  0  0  0  0  0  0  0  0  0  0  0
   -7.0324  -15.3175   24.1834 C   0  0  0  0  0  0  0  0  0  0  0  0
   -6.3544  -13.8924   23.2363 C   0  0  0  0  0  0  0  0  0  0  0  0
   -6.4391  -10.5472   16.2727 N   0  0  0  0  0  0  0  0  0  0  0  0
   -7.9209  -10.5735   14.8827 C   0  0  0  0  0  0  0  0  0  0  0  0
   -8.0750  -10.9962   13.3165 C   0  0  0  0  0  0  0  0  0  0  0  0
   -7.3689  -10.0829   12.5022 N   0  0  0  0  0  0  0  0  0  0  0  0
   -6.2685   -9.5627   13.0531 C   0  0  0  0  0  0  0  0  0  0  0  0
   -5.6617   -8.8111   12.1559 N   0  0  0  0  0  0  0  0  0  0  0  0
   -6.2338   -9.1421   10.9303 N   0  0  0  0  0  0  0  0  0  0  0  0
   -7.1484  -10.0616   11.1721 C   0  0  0  0  0  0  0  0  0  0  0  0
   -7.6330  -11.1898   10.2381 C   0  0  0  0  0  0  0  0  0  0  0  0
   -8.6375  -10.8962    9.1821 C   0  0  0  0  0  0  0  0  0  0  0  0
   -7.1982  -11.2128    8.8161 C   0  0  0  0  0  0  0  0  0  0  0  0
   -5.6021  -10.4276   14.3658 C   0  0  0  0  0  0  0  0  0  0  0  0
   -5.6552  -12.3289   19.8900 H   0  0  0  0  0  0  0  0  0  0  0  0
   -7.3573  -13.2396   19.6816 H   0  0  0  0  0  0  0  0  0  0  0  0
   -7.3916  -11.1623   23.3056 H   0  0  0  0  0  0  0  0  0  0  0  0
   -3.5240  -15.8080   23.5544 H   0  0  0  0  0  0  0  0  0  0  0  0
   -4.6427  -17.7990   24.5800 H   0  0  0  0  0  0  0  0  0  0  0  0
   -7.1183  -17.3419   25.2868 H   0  0  0  0  0  0  0  0  0  0  0  0
   -7.8189  -15.1005   24.9500 H   0  0  0  0  0  0  0  0  0  0  0  0
   -8.2472   -9.5320   14.7897 H   0  0  0  0  0  0  0  0  0  0  0  0
   -8.6064  -11.3695   15.2030 H   0  0  0  0  0  0  0  0  0  0  0  0
   -7.7605  -12.0143   13.0719 H   0  0  0  0  0  0  0  0  0  0  0  0
   -9.1372  -10.9071   13.0548 H   0  0  0  0  0  0  0  0  0  0  0  0
   -7.6870  -12.1667   10.7090 H   0  0  0  0  0  0  0  0  0  0  0  0
   -9.3901  -11.6446    8.9661 H   0  0  0  0  0  0  0  0  0  0  0  0
   -8.9964   -9.8743    9.1217 H   0  0  0  0  0  0  0  0  0  0  0  0
   -6.5133  -10.4260    8.5103 H   0  0  0  0  0  0  0  0  0  0  0  0
   -6.9803  -12.1739    8.3667 H   0  0  0  0  0  0  0  0  0  0  0  0
   -4.5821  -10.1657   13.9873 H   0  0  0  0  0  0  0  0  0  0  0  0
   -5.5547  -11.3818   13.7420 H   0  0  0  0  0  0  0  0  0  0  0  0
  1  2  2  0
  2  3  1  0
  3  4  1  0
  4  5  1  0
  5  6  2  0
  6  7  1  0
  7  8  2  0
  8  9  1  0
  9 10  2  0
 10 11  1  0
 11 12  2  0
  2 13  1  0
 13 14  1  0
 14 15  1  0
 15 16  1  0
 16 17  1  0
 17 18  2  0
 18 19  1  0
 19 20  2  0
 20 21  1  0
 21 22  1  0
 22 23  1  0
 17 24  1  0
 12  4  1  0
 24 13  1  0
 12  7  1  0
 20 16  1  0
 23 21  1  0
  3 25  1  0
  3 26  1  0
  5 27  1  0
  8 28  1  0
  9 29  1  0
 10 30  1  0
 11 31  1  0
 14 32  1  0
 14 33  1  0
 15 34  1  0
 15 35  1  0
 21 36  1  0
 22 37  1  0
 22 38  1  0
 23 39  1  0
 23 40  1  0
 24 41  1  0
 24 42  1  0
M  END
>  <Energy>  (49) 
1384.5551804417814

>  <compound_id>  (49) 
18455

>  <target_id>  (49) 
1

>  <reference_id>  (49) 
65

>  <inspiration_ids>  (49) 
[65, 52]

>  <energy_score>  (49) 
1336.621335499408

>  <distance_score>  (49) 
12.35810031673403

>  <path>  (49) 
/opt/xchem-fragalysis-2/maxwin/BulkDock/SCRATCH/511016/C18455-P65/C18455-P65.minimised.mol

>  <scratch_subdir>  (49) 
/opt/xchem-fragalysis-2/maxwin/BulkDock/SCRATCH/511016/C18455-P65

>  <fragmenstein_runtime>  (49) 
30.899153470993042

>  <fragmenstein_outcome>  (49) 
too moved

>  <fragmenstein_mode>  (49) 
expansion

>  <fragmenstein_error>  (49) 


$$$$
C18455-P52
     RDKit          3D

 42 46  0  0  0  0  0  0  0  0999 V2000
   -8.5383  -16.8478   19.6185 O   0  0  0  0  0  0  0  0  0  0  0  0
   -9.2831  -17.5971   19.0485 C   0  0  0  0  0  0  0  0  0  0  0  0
  -10.1668  -18.5790   19.9502 C   0  0  0  0  0  0  0  0  0  0  0  0
   -9.6639  -18.9630   21.3254 N   0  0  0  0  0  0  0  0  0  0  0  0
   -8.4173  -18.7057   21.8482 C   0  0  0  0  0  0  0  0  0  0  0  0
   -8.2268  -19.2515   23.0302 N   0  0  0  0  0  0  0  0  0  0  0  0
   -9.3678  -19.9379   23.3085 C   0  0  0  0  0  0  0  0  0  0  0  0
   -9.6467  -20.7502   24.4268 C   0  0  0  0  0  0  0  0  0  0  0  0
  -10.9120  -21.3180   24.5507 C   0  0  0  0  0  0  0  0  0  0  0  0
  -11.8695  -21.0832   23.5653 C   0  0  0  0  0  0  0  0  0  0  0  0
  -11.5973  -20.2993   22.4231 C   0  0  0  0  0  0  0  0  0  0  0  0
  -10.3197  -19.7340   22.3009 C   0  0  0  0  0  0  0  0  0  0  0  0
   -9.4643  -17.8464   17.6237 N   0  0  0  0  0  0  0  0  0  0  0  0
  -10.5667  -16.9007   17.0450 C   0  0  0  0  0  0  0  0  0  0  0  0
  -10.4934  -15.3333   16.8847 C   0  0  0  0  0  0  0  0  0  0  0  0
   -9.5401  -15.0199   15.8690 N   0  0  0  0  0  0  0  0  0  0  0  0
   -8.5363  -15.9188   15.7459 C   0  0  0  0  0  0  0  0  0  0  0  0
   -7.6955  -15.4549   14.8367 N   0  0  0  0  0  0  0  0  0  0  0  0
   -8.3025  -14.3741   14.2156 N   0  0  0  0  0  0  0  0  0  0  0  0
   -9.5034  -14.2465   14.7465 C   0  0  0  0  0  0  0  0  0  0  0  0
  -10.6870  -13.5474   14.0109 C   0  0  0  0  0  0  0  0  0  0  0  0
  -10.4246  -12.7008   12.7920 C   0  0  0  0  0  0  0  0  0  0  0  0
  -11.0518  -14.0545   12.6363 C   0  0  0  0  0  0  0  0  0  0  0  0
   -8.6589  -17.3032   16.3658 C   0  0  0  0  0  0  0  0  0  0  0  0
  -11.1380  -18.1042   20.1225 H   0  0  0  0  0  0  0  0  0  0  0  0
  -10.2963  -19.5324   19.4275 H   0  0  0  0  0  0  0  0  0  0  0  0
   -7.6616  -18.1247   21.3325 H   0  0  0  0  0  0  0  0  0  0  0  0
   -8.8828  -20.9072   25.1814 H   0  0  0  0  0  0  0  0  0  0  0  0
  -11.1574  -21.9298   25.4144 H   0  0  0  0  0  0  0  0  0  0  0  0
  -12.8613  -21.5210   23.6792 H   0  0  0  0  0  0  0  0  0  0  0  0
  -12.3594  -20.1563   21.6640 H   0  0  0  0  0  0  0  0  0  0  0  0
  -11.3921  -17.0447   17.7593 H   0  0  0  0  0  0  0  0  0  0  0  0
  -10.9582  -17.3624   16.1213 H   0  0  0  0  0  0  0  0  0  0  0  0
  -10.1649  -14.8548   17.8095 H   0  0  0  0  0  0  0  0  0  0  0  0
  -11.4697  -14.9373   16.5908 H   0  0  0  0  0  0  0  0  0  0  0  0
  -11.5239  -13.2811   14.6474 H   0  0  0  0  0  0  0  0  0  0  0  0
   -9.3989  -12.5744   12.4613 H   0  0  0  0  0  0  0  0  0  0  0  0
  -11.0461  -11.8274   12.6352 H   0  0  0  0  0  0  0  0  0  0  0  0
  -10.4445  -14.8354   12.1908 H   0  0  0  0  0  0  0  0  0  0  0  0
  -12.1004  -14.0977   12.3686 H   0  0  0  0  0  0  0  0  0  0  0  0
   -7.6301  -17.5743   16.6423 H   0  0  0  0  0  0  0  0  0  0  0  0
   -8.9149  -18.0024   15.5533 H   0  0  0  0  0  0  0  0  0  0  0  0
  1  2  2  0
  2  3  1  0
  3  4  1  0
  4  5  1  0
  5  6  2  0
  6  7  1  0
  7  8  2  0
  8  9  1  0
  9 10  2  0
 10 11  1  0
 11 12  2  0
  2 13  1  0
 13 14  1  0
 14 15  1  0
 15 16  1  0
 16 17  1  0
 17 18  2  0
 18 19  1  0
 19 20  2  0
 20 21  1  0
 21 22  1  0
 22 23  1  0
 17 24  1  0
 12  4  1  0
 24 13  1  0
 12  7  1  0
 20 16  1  0
 23 21  1  0
  3 25  1  0
  3 26  1  0
  5 27  1  0
  8 28  1  0
  9 29  1  0
 10 30  1  0
 11 31  1  0
 14 32  1  0
 14 33  1  0
 15 34  1  0
 15 35  1  0
 21 36  1  0
 22 37  1  0
 22 38  1  0
 23 39  1  0
 23 40  1  0
 24 41  1  0
 24 42  1  0
M  END
>  <Energy>  (50) 
135.59195926098164

>  <compound_id>  (50) 
18455

>  <target_id>  (50) 
1

>  <reference_id>  (50) 
52

>  <inspiration_ids>  (50) 
[65, 52]

>  <energy_score>  (50) 
87.6581143186072

>  <distance_score>  (50) 
14.707682371462012

>  <path>  (50) 
/opt/xchem-fragalysis-2/maxwin/BulkDock/SCRATCH/511016/C18455-P52/C18455-P52.minimised.mol

>  <scratch_subdir>  (50) 
/opt/xchem-fragalysis-2/maxwin/BulkDock/SCRATCH/511016/C18455-P52

>  <fragmenstein_runtime>  (50) 
31.279300212860107

>  <fragmenstein_outcome>  (50) 
too moved

>  <fragmenstein_mode>  (50) 
expansion

>  <fragmenstein_error>  (50) 


$$$$
C18455-P65
     RDKit          3D

 42 46  0  0  0  0  0  0  0  0999 V2000
   -5.4863  -12.7791   17.4206 O   0  0  0  0  0  0  0  0  0  0  0  0
   -6.1879  -11.8793   17.7905 C   0  0  0  0  0  0  0  0  0  0  0  0
   -6.8224  -12.3094   19.8164 C   0  0  0  0  0  0  0  0  0  0  0  0
   -6.5964  -12.6319   21.8627 N   0  0  0  0  0  0  0  0  0  0  0  0
   -6.7272  -11.9810   23.1127 C   0  0  0  0  0  0  0  0  0  0  0  0
   -5.8654  -12.5658   24.0606 N   0  0  0  0  0  0  0  0  0  0  0  0
   -5.1531  -14.0413   23.6091 C   0  0  0  0  0  0  0  0  0  0  0  0
   -4.5963  -15.7075   23.7648 C   0  0  0  0  0  0  0  0  0  0  0  0
   -5.1936  -16.8953   24.3812 C   0  0  0  0  0  0  0  0  0  0  0  0
   -6.5054  -16.6838   24.6892 C   0  0  0  0  0  0  0  0  0  0  0  0
   -7.0324  -15.3175   24.1834 C   0  0  0  0  0  0  0  0  0  0  0  0
   -6.3544  -13.8924   23.2363 C   0  0  0  0  0  0  0  0  0  0  0  0
   -6.4391  -10.5472   16.2727 N   0  0  0  0  0  0  0  0  0  0  0  0
   -7.9209  -10.5735   14.8827 C   0  0  0  0  0  0  0  0  0  0  0  0
   -8.0750  -10.9962   13.3165 C   0  0  0  0  0  0  0  0  0  0  0  0
   -7.3689  -10.0829   12.5022 N   0  0  0  0  0  0  0  0  0  0  0  0
   -6.2685   -9.5627   13.0531 C   0  0  0  0  0  0  0  0  0  0  0  0
   -5.6617   -8.8111   12.1559 N   0  0  0  0  0  0  0  0  0  0  0  0
   -6.2338   -9.1421   10.9303 N   0  0  0  0  0  0  0  0  0  0  0  0
   -7.1484  -10.0616   11.1721 C   0  0  0  0  0  0  0  0  0  0  0  0
   -7.6330  -11.1898   10.2381 C   0  0  0  0  0  0  0  0  0  0  0  0
   -8.6375  -10.8962    9.1821 C   0  0  0  0  0  0  0  0  0  0  0  0
   -7.1982  -11.2128    8.8161 C   0  0  0  0  0  0  0  0  0  0  0  0
   -5.6021  -10.4276   14.3658 C   0  0  0  0  0  0  0  0  0  0  0  0
   -5.6552  -12.3289   19.8900 H   0  0  0  0  0  0  0  0  0  0  0  0
   -7.3573  -13.2396   19.6816 H   0  0  0  0  0  0  0  0  0  0  0  0
   -7.3916  -11.1623   23.3056 H   0  0  0  0  0  0  0  0  0  0  0  0
   -3.5240  -15.8080   23.5544 H   0  0  0  0  0  0  0  0  0  0  0  0
   -4.6427  -17.7990   24.5800 H   0  0  0  0  0  0  0  0  0  0  0  0
   -7.1183  -17.3419   25.2868 H   0  0  0  0  0  0  0  0  0  0  0  0
   -7.8189  -15.1005   24.9500 H   0  0  0  0  0  0  0  0  0  0  0  0
   -8.2472   -9.5320   14.7897 H   0  0  0  0  0  0  0  0  0  0  0  0
   -8.6064  -11.3695   15.2030 H   0  0  0  0  0  0  0  0  0  0  0  0
   -7.7605  -12.0143   13.0719 H   0  0  0  0  0  0  0  0  0  0  0  0
   -9.1372  -10.9071   13.0548 H   0  0  0  0  0  0  0  0  0  0  0  0
   -7.6870  -12.1667   10.7090 H   0  0  0  0  0  0  0  0  0  0  0  0
   -9.3901  -11.6446    8.9661 H   0  0  0  0  0  0  0  0  0  0  0  0
   -8.9964   -9.8743    9.1217 H   0  0  0  0  0  0  0  0  0  0  0  0
   -6.5133  -10.4260    8.5103 H   0  0  0  0  0  0  0  0  0  0  0  0
   -6.9803  -12.1739    8.3667 H   0  0  0  0  0  0  0  0  0  0  0  0
   -4.5821  -10.1657   13.9873 H   0  0  0  0  0  0  0  0  0  0  0  0
   -5.5547  -11.3818   13.7420 H   0  0  0  0  0  0  0  0  0  0  0  0
  1  2  2  0
  2  3  1  0
  3  4  1  0
  4  5  1  0
  5  6  2  0
  6  7  1  0
  7  8  2  0
  8  9  1  0
  9 10  2  0
 10 11  1  0
 11 12  2  0
  2 13  1  0
 13 14  1  0
 14 15  1  0
 15 16  1  0
 16 17  1  0
 17 18  2  0
 18 19  1  0
 19 20  2  0
 20 21  1  0
 21 22  1  0
 22 23  1  0
 17 24  1  0
 12  4  1  0
 24 13  1  0
 12  7  1  0
 20 16  1  0
 23 21  1  0
  3 25  1  0
  3 26  1  0
  5 27  1  0
  8 28  1  0
  9 29  1  0
 10 30  1  0
 11 31  1  0
 14 32  1  0
 14 33  1  0
 15 34  1  0
 15 35  1  0
 21 36  1  0
 22 37  1  0
 22 38  1  0
 23 39  1  0
 23 40  1  0
 24 41  1  0
 24 42  1  0
M  END
>  <Energy>  (51) 
1384.5551804417814

>  <compound_id>  (51) 
18455

>  <target_id>  (51) 
1

>  <reference_id>  (51) 
65

>  <inspiration_ids>  (51) 
[65, 52]

>  <energy_score>  (51) 
1336.621335499408

>  <distance_score>  (51) 
12.35810031673403

>  <path>  (51) 
/opt/xchem-fragalysis-2/maxwin/BulkDock/SCRATCH/511016/C18455-P65/C18455-P65.minimised.mol

>  <scratch_subdir>  (51) 
/opt/xchem-fragalysis-2/maxwin/BulkDock/SCRATCH/511016/C18455-P65

>  <fragmenstein_runtime>  (51) 
30.95155143737793

>  <fragmenstein_outcome>  (51) 
too moved

>  <fragmenstein_mode>  (51) 
expansion

>  <fragmenstein_error>  (51) 


$$$$
C18455-P52
     RDKit          3D

 42 46  0  0  0  0  0  0  0  0999 V2000
   -8.5383  -16.8478   19.6185 O   0  0  0  0  0  0  0  0  0  0  0  0
   -9.2831  -17.5971   19.0485 C   0  0  0  0  0  0  0  0  0  0  0  0
  -10.1668  -18.5790   19.9502 C   0  0  0  0  0  0  0  0  0  0  0  0
   -9.6639  -18.9630   21.3254 N   0  0  0  0  0  0  0  0  0  0  0  0
   -8.4173  -18.7057   21.8482 C   0  0  0  0  0  0  0  0  0  0  0  0
   -8.2268  -19.2515   23.0302 N   0  0  0  0  0  0  0  0  0  0  0  0
   -9.3678  -19.9379   23.3085 C   0  0  0  0  0  0  0  0  0  0  0  0
   -9.6467  -20.7502   24.4268 C   0  0  0  0  0  0  0  0  0  0  0  0
  -10.9120  -21.3180   24.5507 C   0  0  0  0  0  0  0  0  0  0  0  0
  -11.8695  -21.0832   23.5653 C   0  0  0  0  0  0  0  0  0  0  0  0
  -11.5973  -20.2993   22.4231 C   0  0  0  0  0  0  0  0  0  0  0  0
  -10.3197  -19.7340   22.3009 C   0  0  0  0  0  0  0  0  0  0  0  0
   -9.4643  -17.8464   17.6237 N   0  0  0  0  0  0  0  0  0  0  0  0
  -10.5667  -16.9007   17.0450 C   0  0  0  0  0  0  0  0  0  0  0  0
  -10.4934  -15.3333   16.8847 C   0  0  0  0  0  0  0  0  0  0  0  0
   -9.5401  -15.0199   15.8690 N   0  0  0  0  0  0  0  0  0  0  0  0
   -8.5363  -15.9188   15.7459 C   0  0  0  0  0  0  0  0  0  0  0  0
   -7.6955  -15.4549   14.8367 N   0  0  0  0  0  0  0  0  0  0  0  0
   -8.3025  -14.3741   14.2156 N   0  0  0  0  0  0  0  0  0  0  0  0
   -9.5034  -14.2465   14.7465 C   0  0  0  0  0  0  0  0  0  0  0  0
  -10.6870  -13.5474   14.0109 C   0  0  0  0  0  0  0  0  0  0  0  0
  -10.4246  -12.7008   12.7920 C   0  0  0  0  0  0  0  0  0  0  0  0
  -11.0518  -14.0545   12.6363 C   0  0  0  0  0  0  0  0  0  0  0  0
   -8.6589  -17.3032   16.3658 C   0  0  0  0  0  0  0  0  0  0  0  0
  -11.1380  -18.1042   20.1225 H   0  0  0  0  0  0  0  0  0  0  0  0
  -10.2963  -19.5324   19.4275 H   0  0  0  0  0  0  0  0  0  0  0  0
   -7.6616  -18.1247   21.3325 H   0  0  0  0  0  0  0  0  0  0  0  0
   -8.8828  -20.9072   25.1814 H   0  0  0  0  0  0  0  0  0  0  0  0
  -11.1574  -21.9298   25.4144 H   0  0  0  0  0  0  0  0  0  0  0  0
  -12.8613  -21.5210   23.6792 H   0  0  0  0  0  0  0  0  0  0  0  0
  -12.3594  -20.1563   21.6640 H   0  0  0  0  0  0  0  0  0  0  0  0
  -11.3921  -17.0447   17.7593 H   0  0  0  0  0  0  0  0  0  0  0  0
  -10.9582  -17.3624   16.1213 H   0  0  0  0  0  0  0  0  0  0  0  0
  -10.1649  -14.8548   17.8095 H   0  0  0  0  0  0  0  0  0  0  0  0
  -11.4697  -14.9373   16.5908 H   0  0  0  0  0  0  0  0  0  0  0  0
  -11.5239  -13.2811   14.6474 H   0  0  0  0  0  0  0  0  0  0  0  0
   -9.3989  -12.5744   12.4613 H   0  0  0  0  0  0  0  0  0  0  0  0
  -11.0461  -11.8274   12.6352 H   0  0  0  0  0  0  0  0  0  0  0  0
  -10.4445  -14.8354   12.1908 H   0  0  0  0  0  0  0  0  0  0  0  0
  -12.1004  -14.0977   12.3686 H   0  0  0  0  0  0  0  0  0  0  0  0
   -7.6301  -17.5743   16.6423 H   0  0  0  0  0  0  0  0  0  0  0  0
   -8.9149  -18.0024   15.5533 H   0  0  0  0  0  0  0  0  0  0  0  0
  1  2  2  0
  2  3  1  0
  3  4  1  0
  4  5  1  0
  5  6  2  0
  6  7  1  0
  7  8  2  0
  8  9  1  0
  9 10  2  0
 10 11  1  0
 11 12  2  0
  2 13  1  0
 13 14  1  0
 14 15  1  0
 15 16  1  0
 16 17  1  0
 17 18  2  0
 18 19  1  0
 19 20  2  0
 20 21  1  0
 21 22  1  0
 22 23  1  0
 17 24  1  0
 12  4  1  0
 24 13  1  0
 12  7  1  0
 20 16  1  0
 23 21  1  0
  3 25  1  0
  3 26  1  0
  5 27  1  0
  8 28  1  0
  9 29  1  0
 10 30  1  0
 11 31  1  0
 14 32  1  0
 14 33  1  0
 15 34  1  0
 15 35  1  0
 21 36  1  0
 22 37  1  0
 22 38  1  0
 23 39  1  0
 23 40  1  0
 24 41  1  0
 24 42  1  0
M  END
>  <Energy>  (52) 
135.59195926098164

>  <compound_id>  (52) 
18455

>  <target_id>  (52) 
1

>  <reference_id>  (52) 
52

>  <inspiration_ids>  (52) 
[65, 52]

>  <energy_score>  (52) 
87.6581143186072

>  <distance_score>  (52) 
14.707682371462012

>  <path>  (52) 
/opt/xchem-fragalysis-2/maxwin/BulkDock/SCRATCH/511016/C18455-P52/C18455-P52.minimised.mol

>  <scratch_subdir>  (52) 
/opt/xchem-fragalysis-2/maxwin/BulkDock/SCRATCH/511016/C18455-P52

>  <fragmenstein_runtime>  (52) 
31.450047492980957

>  <fragmenstein_outcome>  (52) 
too moved

>  <fragmenstein_mode>  (52) 
expansion

>  <fragmenstein_error>  (52) 


$$$$
C18456-P65
     RDKit          3D

 41 44  0  0  0  0  0  0  0  0999 V2000
   -8.6711  -13.9274   13.6923 C   0  0  0  0  0  0  0  0  0  0  0  0
   -9.2457  -12.4042   14.5571 C   0  0  0  0  0  0  0  0  0  0  0  0
   -8.9975  -11.4259   13.1654 C   0  0  0  0  0  0  0  0  0  0  0  0
   -7.9138  -10.9374   12.6100 N   0  0  0  0  0  0  0  0  0  0  0  0
   -7.9699   -9.6168   12.9449 N   0  0  0  0  0  0  0  0  0  0  0  0
   -9.1106   -9.4670   13.5914 C   0  0  0  0  0  0  0  0  0  0  0  0
   -9.9464  -10.4850   13.2928 N   0  0  0  0  0  0  0  0  0  0  0  0
  -10.9701  -11.1260   14.0698 C   0  0  0  0  0  0  0  0  0  0  0  0
  -10.1057  -12.5546   14.8881 C   0  0  0  0  0  0  0  0  0  0  0  0
   -8.8421  -12.2338   16.3637 N   0  0  0  0  0  0  0  0  0  0  0  0
   -9.8258  -12.3731   18.0198 C   0  0  0  0  0  0  0  0  0  0  0  0
  -10.3325  -11.3134   18.4273 O   0  0  0  0  0  0  0  0  0  0  0  0
  -10.0733  -13.7474   19.3584 C   0  0  0  0  0  0  0  0  0  0  0  0
  -11.3136  -13.6833   21.0128 C   0  0  0  0  0  0  0  0  0  0  0  0
  -12.1173  -15.5671   21.0580 N   0  0  0  0  0  0  0  0  0  0  0  0
  -12.3853  -16.1749   22.4741 C   0  0  0  0  0  0  0  0  0  0  0  0
  -12.6348  -17.4462   22.4788 N   0  0  0  0  0  0  0  0  0  0  0  0
  -13.1427  -17.6189   21.2506 C   0  0  0  0  0  0  0  0  0  0  0  0
  -13.8140  -18.7907   20.8785 C   0  0  0  0  0  0  0  0  0  0  0  0
  -14.5984  -18.7482   19.7497 C   0  0  0  0  0  0  0  0  0  0  0  0
  -14.7147  -17.5490   19.0561 C   0  0  0  0  0  0  0  0  0  0  0  0
  -13.9859  -16.3857   19.3899 C   0  0  0  0  0  0  0  0  0  0  0  0
  -13.0679  -16.4353   20.4344 C   0  0  0  0  0  0  0  0  0  0  0  0
   -8.5099  -14.7558   14.3821 H   0  0  0  0  0  0  0  0  0  0  0  0
   -7.7669  -13.7209   13.1049 H   0  0  0  0  0  0  0  0  0  0  0  0
   -9.4400  -14.2063   12.9581 H   0  0  0  0  0  0  0  0  0  0  0  0
   -8.3903  -11.7046   14.6430 H   0  0  0  0  0  0  0  0  0  0  0  0
   -9.3428   -8.7071   14.3045 H   0  0  0  0  0  0  0  0  0  0  0  0
  -11.4712  -10.5068   14.7838 H   0  0  0  0  0  0  0  0  0  0  0  0
  -11.7016  -11.5661   13.3802 H   0  0  0  0  0  0  0  0  0  0  0  0
  -10.5990  -13.5462   14.5010 H   0  0  0  0  0  0  0  0  0  0  0  0
  -11.0433  -12.4691   15.5862 H   0  0  0  0  0  0  0  0  0  0  0  0
   -9.0755  -13.6249   19.8029 H   0  0  0  0  0  0  0  0  0  0  0  0
  -10.0380  -14.8435   19.1114 H   0  0  0  0  0  0  0  0  0  0  0  0
  -11.6417  -12.8868   21.7091 H   0  0  0  0  0  0  0  0  0  0  0  0
  -10.8526  -13.8734   21.9693 H   0  0  0  0  0  0  0  0  0  0  0  0
  -12.2291  -15.5780   23.3399 H   0  0  0  0  0  0  0  0  0  0  0  0
  -13.8022  -19.6617   21.5254 H   0  0  0  0  0  0  0  0  0  0  0  0
  -15.1791  -19.6159   19.4503 H   0  0  0  0  0  0  0  0  0  0  0  0
  -15.4083  -17.4983   18.2160 H   0  0  0  0  0  0  0  0  0  0  0  0
  -14.1990  -15.4822   18.8355 H   0  0  0  0  0  0  0  0  0  0  0  0
  1  2  1  0
  2  3  1  0
  3  4  2  0
  4  5  1  0
  5  6  2  0
  6  7  1  0
  7  8  1  0
  8  9  1  0
  9 10  1  0
 10 11  1  0
 11 12  2  0
 11 13  1  0
 13 14  1  0
 14 15  1  0
 15 16  1  0
 16 17  2  0
 17 18  1  0
 18 19  2  0
 19 20  1  0
 20 21  2  0
 21 22  1  0
 22 23  2  0
 10  2  1  0
 23 15  1  0
  7  3  1  0
 23 18  1  0
  1 24  1  0
  1 25  1  0
  1 26  1  0
  2 27  1  0
  6 28  1  0
  8 29  1  0
  8 30  1  0
  9 31  1  0
  9 32  1  0
 13 33  1  0
 13 34  1  0
 14 35  1  0
 14 36  1  0
 16 37  1  0
 19 38  1  0
 20 39  1  0
 21 40  1  0
 22 41  1  0
M  END
>  <Energy>  (53) 
1143.0502716057269

>  <compound_id>  (53) 
18456

>  <target_id>  (53) 
1

>  <reference_id>  (53) 
65

>  <inspiration_ids>  (53) 
[65, 52]

>  <energy_score>  (53) 
1127.8411486227455

>  <distance_score>  (53) 
13.34989930680062

>  <path>  (53) 
/opt/xchem-fragalysis-2/maxwin/BulkDock/SCRATCH/511016/C18456-P65/C18456-P65.minimised.mol

>  <scratch_subdir>  (53) 
/opt/xchem-fragalysis-2/maxwin/BulkDock/SCRATCH/511016/C18456-P65

>  <fragmenstein_runtime>  (53) 
26.531264543533325

>  <fragmenstein_outcome>  (53) 
too moved

>  <fragmenstein_mode>  (53) 
expansion

>  <fragmenstein_error>  (53) 


$$$$
C18456-P52
     RDKit          3D

 41 44  0  0  0  0  0  0  0  0999 V2000
   -8.4887   -6.8848   16.5856 C   0  0  0  0  0  0  0  0  0  0  0  0
   -7.6489   -8.0844   15.6185 C   0  0  0  0  0  0  0  0  0  0  0  0
   -8.0401   -7.2232   14.0980 C   0  0  0  0  0  0  0  0  0  0  0  0
   -7.9155   -5.9166   13.9081 N   0  0  0  0  0  0  0  0  0  0  0  0
   -8.3790   -5.6113   12.6505 N   0  0  0  0  0  0  0  0  0  0  0  0
   -8.7308   -6.7249   12.0536 C   0  0  0  0  0  0  0  0  0  0  0  0
   -8.5359   -7.7717   12.8958 N   0  0  0  0  0  0  0  0  0  0  0  0
   -8.8978   -9.1698   12.6322 C   0  0  0  0  0  0  0  0  0  0  0  0
   -8.4475  -10.4024   13.8197 C   0  0  0  0  0  0  0  0  0  0  0  0
   -7.5941  -10.0226   15.5712 N   0  0  0  0  0  0  0  0  0  0  0  0
   -6.8742  -11.2128   16.9125 C   0  0  0  0  0  0  0  0  0  0  0  0
   -5.6407  -11.4244   16.6399 O   0  0  0  0  0  0  0  0  0  0  0  0
   -7.3126  -12.0983   18.9045 C   0  0  0  0  0  0  0  0  0  0  0  0
   -6.9935  -12.1538   21.1870 C   0  0  0  0  0  0  0  0  0  0  0  0
   -6.7350  -13.4628   22.8657 N   0  0  0  0  0  0  0  0  0  0  0  0
   -7.4485  -13.4573   24.6378 C   0  0  0  0  0  0  0  0  0  0  0  0
   -7.9948  -14.2219   25.5782 N   0  0  0  0  0  0  0  0  0  0  0  0
   -8.2999  -15.2986   24.8307 C   0  0  0  0  0  0  0  0  0  0  0  0
   -8.9099  -16.5389   25.2690 C   0  0  0  0  0  0  0  0  0  0  0  0
   -8.5484  -17.8053   24.6881 C   0  0  0  0  0  0  0  0  0  0  0  0
   -7.8748  -17.9381   23.5007 C   0  0  0  0  0  0  0  0  0  0  0  0
   -7.3303  -16.7906   22.9046 C   0  0  0  0  0  0  0  0  0  0  0  0
   -7.1688  -15.2010   23.5093 C   0  0  0  0  0  0  0  0  0  0  0  0
   -9.0604   -6.1399   15.9841 H   0  0  0  0  0  0  0  0  0  0  0  0
   -7.9042   -6.0598   16.9572 H   0  0  0  0  0  0  0  0  0  0  0  0
   -9.1966   -7.3181   17.3152 H   0  0  0  0  0  0  0  0  0  0  0  0
   -6.7127   -7.7454   16.0290 H   0  0  0  0  0  0  0  0  0  0  0  0
   -9.1298   -6.8182   11.0538 H   0  0  0  0  0  0  0  0  0  0  0  0
   -8.4409   -9.4389   11.6690 H   0  0  0  0  0  0  0  0  0  0  0  0
   -9.9859   -9.2201   12.4864 H   0  0  0  0  0  0  0  0  0  0  0  0
   -7.6538  -10.6282   13.0760 H   0  0  0  0  0  0  0  0  0  0  0  0
   -9.1082  -11.2910   13.7316 H   0  0  0  0  0  0  0  0  0  0  0  0
   -8.1001  -12.8476   18.6708 H   0  0  0  0  0  0  0  0  0  0  0  0
   -6.4277  -12.5760   18.5106 H   0  0  0  0  0  0  0  0  0  0  0  0
   -7.9503  -11.7325   21.5933 H   0  0  0  0  0  0  0  0  0  0  0  0
   -6.5721  -11.3547   21.7701 H   0  0  0  0  0  0  0  0  0  0  0  0
   -8.2084  -13.7797   24.0365 H   0  0  0  0  0  0  0  0  0  0  0  0
   -9.3276  -16.4919   26.2720 H   0  0  0  0  0  0  0  0  0  0  0  0
   -8.6162  -18.7396   25.2447 H   0  0  0  0  0  0  0  0  0  0  0  0
   -7.6672  -18.9154   23.0723 H   0  0  0  0  0  0  0  0  0  0  0  0
   -6.8143  -17.0680   21.9714 H   0  0  0  0  0  0  0  0  0  0  0  0
  1  2  1  0
  2  3  1  0
  3  4  2  0
  4  5  1  0
  5  6  2  0
  6  7  1  0
  7  8  1  0
  8  9  1  0
  9 10  1  0
 10 11  1  0
 11 12  2  0
 11 13  1  0
 13 14  1  0
 14 15  1  0
 15 16  1  0
 16 17  2  0
 17 18  1  0
 18 19  2  0
 19 20  1  0
 20 21  2  0
 21 22  1  0
 22 23  2  0
 10  2  1  0
 23 15  1  0
  7  3  1  0
 23 18  1  0
  1 24  1  0
  1 25  1  0
  1 26  1  0
  2 27  1  0
  6 28  1  0
  8 29  1  0
  8 30  1  0
  9 31  1  0
  9 32  1  0
 13 33  1  0
 13 34  1  0
 14 35  1  0
 14 36  1  0
 16 37  1  0
 19 38  1  0
 20 39  1  0
 21 40  1  0
 22 41  1  0
M  END
>  <Energy>  (54) 
1426.4616048034336

>  <compound_id>  (54) 
18456

>  <target_id>  (54) 
1

>  <reference_id>  (54) 
52

>  <inspiration_ids>  (54) 
[65, 52]

>  <energy_score>  (54) 
1411.2524818204615

>  <distance_score>  (54) 
10.98810276061756

>  <path>  (54) 
/opt/xchem-fragalysis-2/maxwin/BulkDock/SCRATCH/511016/C18456-P52/C18456-P52.minimised.mol

>  <scratch_subdir>  (54) 
/opt/xchem-fragalysis-2/maxwin/BulkDock/SCRATCH/511016/C18456-P52

>  <fragmenstein_runtime>  (54) 
25.876309394836426

>  <fragmenstein_outcome>  (54) 
too moved

>  <fragmenstein_mode>  (54) 
expansion

>  <fragmenstein_error>  (54) 


$$$$
C18456-P65
     RDKit          3D

 41 44  0  0  0  0  0  0  0  0999 V2000
   -8.6711  -13.9274   13.6923 C   0  0  0  0  0  0  0  0  0  0  0  0
   -9.2457  -12.4042   14.5571 C   0  0  0  0  0  0  0  0  0  0  0  0
   -8.9975  -11.4259   13.1654 C   0  0  0  0  0  0  0  0  0  0  0  0
   -7.9138  -10.9374   12.6100 N   0  0  0  0  0  0  0  0  0  0  0  0
   -7.9699   -9.6168   12.9449 N   0  0  0  0  0  0  0  0  0  0  0  0
   -9.1106   -9.4670   13.5914 C   0  0  0  0  0  0  0  0  0  0  0  0
   -9.9464  -10.4850   13.2928 N   0  0  0  0  0  0  0  0  0  0  0  0
  -10.9701  -11.1260   14.0698 C   0  0  0  0  0  0  0  0  0  0  0  0
  -10.1057  -12.5546   14.8881 C   0  0  0  0  0  0  0  0  0  0  0  0
   -8.8421  -12.2338   16.3637 N   0  0  0  0  0  0  0  0  0  0  0  0
   -9.8258  -12.3731   18.0198 C   0  0  0  0  0  0  0  0  0  0  0  0
  -10.3325  -11.3134   18.4273 O   0  0  0  0  0  0  0  0  0  0  0  0
  -10.0733  -13.7474   19.3584 C   0  0  0  0  0  0  0  0  0  0  0  0
  -11.3136  -13.6833   21.0128 C   0  0  0  0  0  0  0  0  0  0  0  0
  -12.1173  -15.5671   21.0580 N   0  0  0  0  0  0  0  0  0  0  0  0
  -12.3853  -16.1749   22.4741 C   0  0  0  0  0  0  0  0  0  0  0  0
  -12.6348  -17.4462   22.4788 N   0  0  0  0  0  0  0  0  0  0  0  0
  -13.1427  -17.6189   21.2506 C   0  0  0  0  0  0  0  0  0  0  0  0
  -13.8140  -18.7907   20.8785 C   0  0  0  0  0  0  0  0  0  0  0  0
  -14.5984  -18.7482   19.7497 C   0  0  0  0  0  0  0  0  0  0  0  0
  -14.7147  -17.5490   19.0561 C   0  0  0  0  0  0  0  0  0  0  0  0
  -13.9859  -16.3857   19.3899 C   0  0  0  0  0  0  0  0  0  0  0  0
  -13.0679  -16.4353   20.4344 C   0  0  0  0  0  0  0  0  0  0  0  0
   -8.5099  -14.7558   14.3821 H   0  0  0  0  0  0  0  0  0  0  0  0
   -7.7669  -13.7209   13.1049 H   0  0  0  0  0  0  0  0  0  0  0  0
   -9.4400  -14.2063   12.9581 H   0  0  0  0  0  0  0  0  0  0  0  0
   -8.3903  -11.7046   14.6430 H   0  0  0  0  0  0  0  0  0  0  0  0
   -9.3428   -8.7071   14.3045 H   0  0  0  0  0  0  0  0  0  0  0  0
  -11.4712  -10.5068   14.7838 H   0  0  0  0  0  0  0  0  0  0  0  0
  -11.7016  -11.5661   13.3802 H   0  0  0  0  0  0  0  0  0  0  0  0
  -10.5990  -13.5462   14.5010 H   0  0  0  0  0  0  0  0  0  0  0  0
  -11.0433  -12.4691   15.5862 H   0  0  0  0  0  0  0  0  0  0  0  0
   -9.0755  -13.6249   19.8029 H   0  0  0  0  0  0  0  0  0  0  0  0
  -10.0380  -14.8435   19.1114 H   0  0  0  0  0  0  0  0  0  0  0  0
  -11.6417  -12.8868   21.7091 H   0  0  0  0  0  0  0  0  0  0  0  0
  -10.8526  -13.8734   21.9693 H   0  0  0  0  0  0  0  0  0  0  0  0
  -12.2291  -15.5780   23.3399 H   0  0  0  0  0  0  0  0  0  0  0  0
  -13.8022  -19.6617   21.5254 H   0  0  0  0  0  0  0  0  0  0  0  0
  -15.1791  -19.6159   19.4503 H   0  0  0  0  0  0  0  0  0  0  0  0
  -15.4083  -17.4983   18.2160 H   0  0  0  0  0  0  0  0  0  0  0  0
  -14.1990  -15.4822   18.8355 H   0  0  0  0  0  0  0  0  0  0  0  0
  1  2  1  0
  2  3  1  0
  3  4  2  0
  4  5  1  0
  5  6  2  0
  6  7  1  0
  7  8  1  0
  8  9  1  0
  9 10  1  0
 10 11  1  0
 11 12  2  0
 11 13  1  0
 13 14  1  0
 14 15  1  0
 15 16  1  0
 16 17  2  0
 17 18  1  0
 18 19  2  0
 19 20  1  0
 20 21  2  0
 21 22  1  0
 22 23  2  0
 10  2  1  0
 23 15  1  0
  7  3  1  0
 23 18  1  0
  1 24  1  0
  1 25  1  0
  1 26  1  0
  2 27  1  0
  6 28  1  0
  8 29  1  0
  8 30  1  0
  9 31  1  0
  9 32  1  0
 13 33  1  0
 13 34  1  0
 14 35  1  0
 14 36  1  0
 16 37  1  0
 19 38  1  0
 20 39  1  0
 21 40  1  0
 22 41  1  0
M  END
>  <Energy>  (55) 
1143.0502716057269

>  <compound_id>  (55) 
18456

>  <target_id>  (55) 
1

>  <reference_id>  (55) 
65

>  <inspiration_ids>  (55) 
[65, 52]

>  <energy_score>  (55) 
1127.8411486227455

>  <distance_score>  (55) 
13.34989930680062

>  <path>  (55) 
/opt/xchem-fragalysis-2/maxwin/BulkDock/SCRATCH/511016/C18456-P65/C18456-P65.minimised.mol

>  <scratch_subdir>  (55) 
/opt/xchem-fragalysis-2/maxwin/BulkDock/SCRATCH/511016/C18456-P65

>  <fragmenstein_runtime>  (55) 
26.158468008041382

>  <fragmenstein_outcome>  (55) 
too moved

>  <fragmenstein_mode>  (55) 
expansion

>  <fragmenstein_error>  (55) 


$$$$
C18456-P52
     RDKit          3D

 41 44  0  0  0  0  0  0  0  0999 V2000
   -8.4887   -6.8848   16.5856 C   0  0  0  0  0  0  0  0  0  0  0  0
   -7.6489   -8.0844   15.6185 C   0  0  0  0  0  0  0  0  0  0  0  0
   -8.0401   -7.2232   14.0980 C   0  0  0  0  0  0  0  0  0  0  0  0
   -7.9155   -5.9166   13.9081 N   0  0  0  0  0  0  0  0  0  0  0  0
   -8.3790   -5.6113   12.6505 N   0  0  0  0  0  0  0  0  0  0  0  0
   -8.7308   -6.7249   12.0536 C   0  0  0  0  0  0  0  0  0  0  0  0
   -8.5359   -7.7717   12.8958 N   0  0  0  0  0  0  0  0  0  0  0  0
   -8.8978   -9.1698   12.6322 C   0  0  0  0  0  0  0  0  0  0  0  0
   -8.4475  -10.4024   13.8197 C   0  0  0  0  0  0  0  0  0  0  0  0
   -7.5941  -10.0226   15.5712 N   0  0  0  0  0  0  0  0  0  0  0  0
   -6.8742  -11.2128   16.9125 C   0  0  0  0  0  0  0  0  0  0  0  0
   -5.6407  -11.4244   16.6399 O   0  0  0  0  0  0  0  0  0  0  0  0
   -7.3126  -12.0983   18.9045 C   0  0  0  0  0  0  0  0  0  0  0  0
   -6.9935  -12.1538   21.1870 C   0  0  0  0  0  0  0  0  0  0  0  0
   -6.7350  -13.4628   22.8657 N   0  0  0  0  0  0  0  0  0  0  0  0
   -7.4485  -13.4573   24.6378 C   0  0  0  0  0  0  0  0  0  0  0  0
   -7.9948  -14.2219   25.5782 N   0  0  0  0  0  0  0  0  0  0  0  0
   -8.2999  -15.2986   24.8307 C   0  0  0  0  0  0  0  0  0  0  0  0
   -8.9099  -16.5389   25.2690 C   0  0  0  0  0  0  0  0  0  0  0  0
   -8.5484  -17.8053   24.6881 C   0  0  0  0  0  0  0  0  0  0  0  0
   -7.8748  -17.9381   23.5007 C   0  0  0  0  0  0  0  0  0  0  0  0
   -7.3303  -16.7906   22.9046 C   0  0  0  0  0  0  0  0  0  0  0  0
   -7.1688  -15.2010   23.5093 C   0  0  0  0  0  0  0  0  0  0  0  0
   -9.0604   -6.1399   15.9841 H   0  0  0  0  0  0  0  0  0  0  0  0
   -7.9042   -6.0598   16.9572 H   0  0  0  0  0  0  0  0  0  0  0  0
   -9.1966   -7.3181   17.3152 H   0  0  0  0  0  0  0  0  0  0  0  0
   -6.7127   -7.7454   16.0290 H   0  0  0  0  0  0  0  0  0  0  0  0
   -9.1298   -6.8182   11.0538 H   0  0  0  0  0  0  0  0  0  0  0  0
   -8.4409   -9.4389   11.6690 H   0  0  0  0  0  0  0  0  0  0  0  0
   -9.9859   -9.2201   12.4864 H   0  0  0  0  0  0  0  0  0  0  0  0
   -7.6538  -10.6282   13.0760 H   0  0  0  0  0  0  0  0  0  0  0  0
   -9.1082  -11.2910   13.7316 H   0  0  0  0  0  0  0  0  0  0  0  0
   -8.1001  -12.8476   18.6708 H   0  0  0  0  0  0  0  0  0  0  0  0
   -6.4277  -12.5760   18.5106 H   0  0  0  0  0  0  0  0  0  0  0  0
   -7.9503  -11.7325   21.5933 H   0  0  0  0  0  0  0  0  0  0  0  0
   -6.5721  -11.3547   21.7701 H   0  0  0  0  0  0  0  0  0  0  0  0
   -8.2084  -13.7797   24.0365 H   0  0  0  0  0  0  0  0  0  0  0  0
   -9.3276  -16.4919   26.2720 H   0  0  0  0  0  0  0  0  0  0  0  0
   -8.6162  -18.7396   25.2447 H   0  0  0  0  0  0  0  0  0  0  0  0
   -7.6672  -18.9154   23.0723 H   0  0  0  0  0  0  0  0  0  0  0  0
   -6.8143  -17.0680   21.9714 H   0  0  0  0  0  0  0  0  0  0  0  0
  1  2  1  0
  2  3  1  0
  3  4  2  0
  4  5  1  0
  5  6  2  0
  6  7  1  0
  7  8  1  0
  8  9  1  0
  9 10  1  0
 10 11  1  0
 11 12  2  0
 11 13  1  0
 13 14  1  0
 14 15  1  0
 15 16  1  0
 16 17  2  0
 17 18  1  0
 18 19  2  0
 19 20  1  0
 20 21  2  0
 21 22  1  0
 22 23  2  0
 10  2  1  0
 23 15  1  0
  7  3  1  0
 23 18  1  0
  1 24  1  0
  1 25  1  0
  1 26  1  0
  2 27  1  0
  6 28  1  0
  8 29  1  0
  8 30  1  0
  9 31  1  0
  9 32  1  0
 13 33  1  0
 13 34  1  0
 14 35  1  0
 14 36  1  0
 16 37  1  0
 19 38  1  0
 20 39  1  0
 21 40  1  0
 22 41  1  0
M  END
>  <Energy>  (56) 
1426.4616048034336

>  <compound_id>  (56) 
18456

>  <target_id>  (56) 
1

>  <reference_id>  (56) 
52

>  <inspiration_ids>  (56) 
[65, 52]

>  <energy_score>  (56) 
1411.2524818204615

>  <distance_score>  (56) 
10.98810276061756

>  <path>  (56) 
/opt/xchem-fragalysis-2/maxwin/BulkDock/SCRATCH/511016/C18456-P52/C18456-P52.minimised.mol

>  <scratch_subdir>  (56) 
/opt/xchem-fragalysis-2/maxwin/BulkDock/SCRATCH/511016/C18456-P52

>  <fragmenstein_runtime>  (56) 
25.75257396697998

>  <fragmenstein_outcome>  (56) 
too moved

>  <fragmenstein_mode>  (56) 
expansion

>  <fragmenstein_error>  (56) 


$$$$
C12858-P63
     RDKit          3D

 50 51  0  0  0  0  0  0  0  0999 V2000
   -7.1661  -13.6311   27.6650 C   0  0  0  0  0  0  0  0  0  0  0  0
   -6.6847  -14.5986   26.5931 C   0  0  0  0  0  0  0  0  0  0  0  0
   -5.1570  -14.8377   26.6653 C   0  0  0  0  0  0  0  0  0  0  0  0
   -4.8304  -16.2752   26.8511 N   0  0  0  0  0  0  0  0  0  0  0  0
   -3.0415  -15.5643   26.8530 C   0  0  0  0  0  0  0  0  0  0  0  0
   -1.2129  -15.3296   26.0595 C   0  0  0  0  0  0  0  0  0  0  0  0
    0.0278  -14.3853   24.9898 N   0  0  0  0  0  0  0  0  0  0  0  0
    1.3892  -13.1476   25.4329 C   0  0  0  0  0  0  0  0  0  0  0  0
    1.6063  -12.9376   26.5733 O   0  0  0  0  0  0  0  0  0  0  0  0
    2.3668  -12.0636   23.8915 C   0  0  0  0  0  0  0  0  0  0  0  0
    3.4039  -10.4258   23.0645 C   0  0  0  0  0  0  0  0  0  0  0  0
    4.8864   -9.9984   23.3793 N   0  0  0  0  0  0  0  0  0  0  0  0
    5.2812   -8.5837   24.5003 C   0  0  0  0  0  0  0  0  0  0  0  0
    4.5810   -7.6650   23.6273 C   0  0  0  0  0  0  0  0  0  0  0  0
    3.1220   -8.5468   22.9172 N   0  0  0  0  0  0  0  0  0  0  0  0
   -5.8324  -16.9764   28.1612 C   0  0  0  0  0  0  0  0  0  0  0  0
   -5.4110  -16.9593   29.2988 O   0  0  0  0  0  0  0  0  0  0  0  0
   -7.7618  -17.7668   28.0758 C   0  0  0  0  0  0  0  0  0  0  0  0
   -8.6323  -19.4829   28.4089 N   0  0  0  0  0  0  0  0  0  0  0  0
   -7.8313  -21.2182   27.7682 C   0  0  0  0  0  0  0  0  0  0  0  0
   -9.0246  -22.6771   28.2132 C   0  0  0  0  0  0  0  0  0  0  0  0
  -10.3601  -21.9757   28.5223 C   0  0  0  0  0  0  0  0  0  0  0  0
  -10.0490  -20.6313   29.2797 C   0  0  0  0  0  0  0  0  0  0  0  0
   -6.7310  -13.8435   28.6404 H   0  0  0  0  0  0  0  0  0  0  0  0
   -6.8687  -12.6094   27.4028 H   0  0  0  0  0  0  0  0  0  0  0  0
   -8.2568  -13.6451   27.7393 H   0  0  0  0  0  0  0  0  0  0  0  0
   -6.9249  -14.1666   25.6134 H   0  0  0  0  0  0  0  0  0  0  0  0
   -7.2749  -15.5051   26.6636 H   0  0  0  0  0  0  0  0  0  0  0  0
   -4.7202  -14.4860   25.7219 H   0  0  0  0  0  0  0  0  0  0  0  0
   -4.8039  -14.2467   27.5170 H   0  0  0  0  0  0  0  0  0  0  0  0
   -2.7087  -16.5001   27.3414 H   0  0  0  0  0  0  0  0  0  0  0  0
   -3.0165  -14.8861   27.7185 H   0  0  0  0  0  0  0  0  0  0  0  0
   -0.5983  -15.4284   26.9621 H   0  0  0  0  0  0  0  0  0  0  0  0
   -1.1574  -16.2776   25.5073 H   0  0  0  0  0  0  0  0  0  0  0  0
   -0.0899  -14.3896   23.9897 H   0  0  0  0  0  0  0  0  0  0  0  0
    3.0282  -12.8317   23.4833 H   0  0  0  0  0  0  0  0  0  0  0  0
    1.5321  -11.8063   23.2647 H   0  0  0  0  0  0  0  0  0  0  0  0
    6.2653   -8.6210   24.9719 H   0  0  0  0  0  0  0  0  0  0  0  0
    5.1410   -7.0230   22.9975 H   0  0  0  0  0  0  0  0  0  0  0  0
    2.1845   -8.3169   23.2086 H   0  0  0  0  0  0  0  0  0  0  0  0
   -8.1655  -17.5038   28.9688 H   0  0  0  0  0  0  0  0  0  0  0  0
   -8.4084  -17.2113   27.3836 H   0  0  0  0  0  0  0  0  0  0  0  0
   -6.7958  -21.4916   27.9360 H   0  0  0  0  0  0  0  0  0  0  0  0
   -7.7991  -21.1238   26.8122 H   0  0  0  0  0  0  0  0  0  0  0  0
   -9.1802  -23.4043   27.3853 H   0  0  0  0  0  0  0  0  0  0  0  0
   -8.8231  -23.5477   28.8223 H   0  0  0  0  0  0  0  0  0  0  0  0
  -10.9948  -22.6181   29.1473 H   0  0  0  0  0  0  0  0  0  0  0  0
  -10.9567  -21.7927   27.6252 H   0  0  0  0  0  0  0  0  0  0  0  0
   -9.9013  -20.8316   30.3504 H   0  0  0  0  0  0  0  0  0  0  0  0
  -11.0920  -20.3030   29.4795 H   0  0  0  0  0  0  0  0  0  0  0  0
  1  2  1  0
  2  3  1  0
  3  4  1  0
  4  5  1  0
  5  6  1  0
  6  7  1  0
  7  8  1  0
  8  9  2  0
  8 10  1  0
 10 11  1  0
 11 12  2  0
 12 13  1  0
 13 14  2  0
 14 15  1  0
  4 16  1  0
 16 17  2  0
 16 18  1  0
 18 19  1  0
 19 20  1  0
 20 21  1  0
 21 22  1  0
 22 23  1  0
 15 11  1  0
 23 19  1  0
  1 24  1  0
  1 25  1  0
  1 26  1  0
  2 27  1  0
  2 28  1  0
  3 29  1  0
  3 30  1  0
  5 31  1  0
  5 32  1  0
  6 33  1  0
  6 34  1  0
  7 35  1  0
 10 36  1  0
 10 37  1  0
 13 38  1  0
 14 39  1  0
 15 40  1  0
 18 41  1  0
 18 42  1  0
 20 43  1  0
 20 44  1  0
 21 45  1  0
 21 46  1  0
 22 47  1  0
 22 48  1  0
 23 49  1  0
 23 50  1  0
M  END
>  <Energy>  (57) 
1456.7205773946405

>  <compound_id>  (57) 
12858

>  <target_id>  (57) 
1

>  <reference_id>  (57) 
63

>  <inspiration_ids>  (57) 
[63, 3]

>  <energy_score>  (57) 
1337.0228001591381

>  <distance_score>  (57) 
10.00484993535507

>  <path>  (57) 
/opt/xchem-fragalysis-2/maxwin/BulkDock/SCRATCH/511016/C12858-P63/C12858-P63.minimised.mol

>  <scratch_subdir>  (57) 
/opt/xchem-fragalysis-2/maxwin/BulkDock/SCRATCH/511016/C12858-P63

>  <fragmenstein_runtime>  (57) 
46.2944712638855

>  <fragmenstein_outcome>  (57) 
too moved

>  <fragmenstein_mode>  (57) 
expansion

>  <fragmenstein_error>  (57) 


$$$$
C12858-P3
     RDKit          3D

 50 51  0  0  0  0  0  0  0  0999 V2000
   -3.4651  -22.4194   24.9745 C   0  0  0  0  0  0  0  0  0  0  0  0
   -3.1841  -21.6201   26.2194 C   0  0  0  0  0  0  0  0  0  0  0  0
   -2.8318  -20.1326   25.9129 C   0  0  0  0  0  0  0  0  0  0  0  0
   -3.2429  -19.4470   27.1594 N   0  0  0  0  0  0  0  0  0  0  0  0
   -1.7887  -18.3298   26.6920 C   0  0  0  0  0  0  0  0  0  0  0  0
   -0.9267  -16.6424   27.0403 C   0  0  0  0  0  0  0  0  0  0  0  0
    0.5309  -15.8595   26.2254 N   0  0  0  0  0  0  0  0  0  0  0  0
    1.3007  -14.3597   26.5133 C   0  0  0  0  0  0  0  0  0  0  0  0
    1.0480  -13.5669   27.3968 O   0  0  0  0  0  0  0  0  0  0  0  0
    2.8324  -13.7508   25.4995 C   0  0  0  0  0  0  0  0  0  0  0  0
    3.4339  -12.0924   24.5519 C   0  0  0  0  0  0  0  0  0  0  0  0
    4.0431  -10.8989   24.8860 N   0  0  0  0  0  0  0  0  0  0  0  0
    4.8528   -9.9749   24.1367 C   0  0  0  0  0  0  0  0  0  0  0  0
    4.9021  -10.5772   22.9404 C   0  0  0  0  0  0  0  0  0  0  0  0
    3.8967  -11.8689   23.0764 N   0  0  0  0  0  0  0  0  0  0  0  0
   -4.8760  -19.1828   27.1504 C   0  0  0  0  0  0  0  0  0  0  0  0
   -5.3707  -18.1599   26.7128 O   0  0  0  0  0  0  0  0  0  0  0  0
   -6.3684  -20.5241   27.6674 C   0  0  0  0  0  0  0  0  0  0  0  0
   -8.1360  -20.9717   28.4940 N   0  0  0  0  0  0  0  0  0  0  0  0
   -9.6854  -20.8621   28.2037 C   0  0  0  0  0  0  0  0  0  0  0  0
  -10.6324  -21.2707   29.3324 C   0  0  0  0  0  0  0  0  0  0  0  0
   -9.9456  -22.4021   30.0104 C   0  0  0  0  0  0  0  0  0  0  0  0
   -8.4798  -21.9690   30.0405 C   0  0  0  0  0  0  0  0  0  0  0  0
   -3.6464  -23.4686   25.2250 H   0  0  0  0  0  0  0  0  0  0  0  0
   -4.3358  -22.0264   24.4418 H   0  0  0  0  0  0  0  0  0  0  0  0
   -2.6105  -22.3863   24.2907 H   0  0  0  0  0  0  0  0  0  0  0  0
   -4.0402  -21.7169   26.8858 H   0  0  0  0  0  0  0  0  0  0  0  0
   -2.3431  -22.0716   26.7622 H   0  0  0  0  0  0  0  0  0  0  0  0
   -3.4388  -19.7611   25.0785 H   0  0  0  0  0  0  0  0  0  0  0  0
   -1.7747  -20.1924   25.6289 H   0  0  0  0  0  0  0  0  0  0  0  0
   -0.9296  -18.9941   26.8635 H   0  0  0  0  0  0  0  0  0  0  0  0
   -1.9876  -18.1245   25.6287 H   0  0  0  0  0  0  0  0  0  0  0  0
   -1.7035  -15.8820   26.9078 H   0  0  0  0  0  0  0  0  0  0  0  0
   -0.6234  -16.6734   28.0918 H   0  0  0  0  0  0  0  0  0  0  0  0
    1.0063  -16.3404   25.4732 H   0  0  0  0  0  0  0  0  0  0  0  0
    2.9318  -14.5846   24.7930 H   0  0  0  0  0  0  0  0  0  0  0  0
    3.6078  -13.8966   26.2504 H   0  0  0  0  0  0  0  0  0  0  0  0
    5.2362   -9.0441   24.5350 H   0  0  0  0  0  0  0  0  0  0  0  0
    5.3892  -10.2449   22.0343 H   0  0  0  0  0  0  0  0  0  0  0  0
    3.8326  -12.5641   22.3530 H   0  0  0  0  0  0  0  0  0  0  0  0
   -6.9959  -19.6772   27.7172 H   0  0  0  0  0  0  0  0  0  0  0  0
   -5.6832  -21.1731   28.2152 H   0  0  0  0  0  0  0  0  0  0  0  0
   -9.9400  -21.5826   27.4158 H   0  0  0  0  0  0  0  0  0  0  0  0
  -10.0009  -19.8315   27.9984 H   0  0  0  0  0  0  0  0  0  0  0  0
  -10.8048  -20.4406   30.0279 H   0  0  0  0  0  0  0  0  0  0  0  0
  -11.6112  -21.5665   28.9420 H   0  0  0  0  0  0  0  0  0  0  0  0
  -10.1023  -23.3226   29.4529 H   0  0  0  0  0  0  0  0  0  0  0  0
  -10.3381  -22.5652   31.0197 H   0  0  0  0  0  0  0  0  0  0  0  0
   -7.8116  -22.8140   30.2254 H   0  0  0  0  0  0  0  0  0  0  0  0
   -8.3715  -21.4807   31.0210 H   0  0  0  0  0  0  0  0  0  0  0  0
  1  2  1  0
  2  3  1  0
  3  4  1  0
  4  5  1  0
  5  6  1  0
  6  7  1  0
  7  8  1  0
  8  9  2  0
  8 10  1  0
 10 11  1  0
 11 12  2  0
 12 13  1  0
 13 14  2  0
 14 15  1  0
  4 16  1  0
 16 17  2  0
 16 18  1  0
 18 19  1  0
 19 20  1  0
 20 21  1  0
 21 22  1  0
 22 23  1  0
 15 11  1  0
 23 19  1  0
  1 24  1  0
  1 25  1  0
  1 26  1  0
  2 27  1  0
  2 28  1  0
  3 29  1  0
  3 30  1  0
  5 31  1  0
  5 32  1  0
  6 33  1  0
  6 34  1  0
  7 35  1  0
 10 36  1  0
 10 37  1  0
 13 38  1  0
 14 39  1  0
 15 40  1  0
 18 41  1  0
 18 42  1  0
 20 43  1  0
 20 44  1  0
 21 45  1  0
 21 46  1  0
 22 47  1  0
 22 48  1  0
 23 49  1  0
 23 50  1  0
M  END
>  <Energy>  (58) 
877.74679200461219

>  <compound_id>  (58) 
12858

>  <target_id>  (58) 
1

>  <reference_id>  (58) 
3

>  <inspiration_ids>  (58) 
[63, 3]

>  <energy_score>  (58) 
758.049014769087

>  <distance_score>  (58) 
10.292443910163026

>  <path>  (58) 
/opt/xchem-fragalysis-2/maxwin/BulkDock/SCRATCH/511016/C12858-P3/C12858-P3.minimised.mol

>  <scratch_subdir>  (58) 
/opt/xchem-fragalysis-2/maxwin/BulkDock/SCRATCH/511016/C12858-P3

>  <fragmenstein_runtime>  (58) 
24.383061408996582

>  <fragmenstein_outcome>  (58) 
too moved

>  <fragmenstein_mode>  (58) 
expansion

>  <fragmenstein_error>  (58) 


$$$$
C12869-P63
     RDKit          3D

 42 44  0  0  0  0  0  0  0  0999 V2000
   -5.6067  -19.7959   22.0945 C   0  0  0  0  0  0  0  0  0  0  0  0
   -6.7191  -19.2844   21.2628 N   0  0  0  0  0  0  0  0  0  0  0  0
   -7.6734  -20.1176   22.4626 C   0  0  0  0  0  0  0  0  0  0  0  0
   -9.1270  -21.4185   22.3352 C   0  0  0  0  0  0  0  0  0  0  0  0
  -10.3541  -21.5354   23.2255 N   0  0  0  0  0  0  0  0  0  0  0  0
  -11.6187  -21.3559   22.5793 C   0  0  0  0  0  0  0  0  0  0  0  0
  -12.5556  -21.6353   23.7921 C   0  0  0  0  0  0  0  0  0  0  0  0
  -11.9665  -22.7757   24.5571 C   0  0  0  0  0  0  0  0  0  0  0  0
  -10.7003  -22.8913   23.7385 C   0  0  0  0  0  0  0  0  0  0  0  0
   -6.5361  -17.8402   21.0112 C   0  0  0  0  0  0  0  0  0  0  0  0
   -6.9303  -16.8832   21.6289 O   0  0  0  0  0  0  0  0  0  0  0  0
   -5.5886  -17.5276   19.8052 C   0  0  0  0  0  0  0  0  0  0  0  0
   -5.1825  -18.6083   19.0512 C   0  0  0  0  0  0  0  0  0  0  0  0
   -4.1597  -18.5303   18.1709 N   0  0  0  0  0  0  0  0  0  0  0  0
   -3.5712  -17.3086   18.0089 C   0  0  0  0  0  0  0  0  0  0  0  0
   -3.9544  -16.1571   18.6929 C   0  0  0  0  0  0  0  0  0  0  0  0
   -3.2581  -14.8955   18.3488 N   0  0  0  0  0  0  0  0  0  0  0  0
   -3.6002  -13.6038   18.7105 C   0  0  0  0  0  0  0  0  0  0  0  0
   -2.7166  -12.7476   18.0837 C   0  0  0  0  0  0  0  0  0  0  0  0
   -1.8106  -13.4501   17.3427 N   0  0  0  0  0  0  0  0  0  0  0  0
   -2.1441  -14.7147   17.5224 C   0  0  0  0  0  0  0  0  0  0  0  0
   -4.9807  -16.2565   19.6357 N   0  0  0  0  0  0  0  0  0  0  0  0
   -5.5298  -19.2482   23.0318 H   0  0  0  0  0  0  0  0  0  0  0  0
   -4.7216  -19.5379   21.5119 H   0  0  0  0  0  0  0  0  0  0  0  0
   -5.4289  -20.8699   22.1902 H   0  0  0  0  0  0  0  0  0  0  0  0
   -8.0064  -19.2801   23.0314 H   0  0  0  0  0  0  0  0  0  0  0  0
   -7.0354  -20.6977   23.0655 H   0  0  0  0  0  0  0  0  0  0  0  0
   -9.4127  -21.5921   21.2878 H   0  0  0  0  0  0  0  0  0  0  0  0
   -8.6842  -22.3294   22.7272 H   0  0  0  0  0  0  0  0  0  0  0  0
  -11.6282  -20.4024   22.1282 H   0  0  0  0  0  0  0  0  0  0  0  0
  -11.8159  -22.0442   21.7440 H   0  0  0  0  0  0  0  0  0  0  0  0
  -13.5774  -21.9041   23.5167 H   0  0  0  0  0  0  0  0  0  0  0  0
  -12.5433  -20.7659   24.4524 H   0  0  0  0  0  0  0  0  0  0  0  0
  -12.6470  -23.6221   24.5571 H   0  0  0  0  0  0  0  0  0  0  0  0
  -11.8244  -22.5873   25.6190 H   0  0  0  0  0  0  0  0  0  0  0  0
   -9.9333  -23.5627   24.1192 H   0  0  0  0  0  0  0  0  0  0  0  0
  -11.1227  -23.3551   22.9073 H   0  0  0  0  0  0  0  0  0  0  0  0
   -5.6283  -19.5932   19.1363 H   0  0  0  0  0  0  0  0  0  0  0  0
   -2.7849  -17.3240   17.2627 H   0  0  0  0  0  0  0  0  0  0  0  0
   -4.4631  -13.4075   19.3287 H   0  0  0  0  0  0  0  0  0  0  0  0
   -2.7005  -11.6655   18.1278 H   0  0  0  0  0  0  0  0  0  0  0  0
   -1.6081  -15.5425   17.0807 H   0  0  0  0  0  0  0  0  0  0  0  0
  1  2  1  0
  2  3  1  0
  3  4  1  0
  4  5  1  0
  5  6  1  0
  6  7  1  0
  7  8  1  0
  8  9  1  0
  2 10  1  0
 10 11  2  0
 10 12  1  0
 12 13  2  0
 13 14  1  0
 14 15  2  0
 15 16  1  0
 16 17  1  0
 17 18  1  0
 18 19  2  0
 19 20  1  0
 20 21  2  0
 16 22  2  0
  9  5  1  0
 22 12  1  0
 21 17  1  0
  1 23  1  0
  1 24  1  0
  1 25  1  0
  3 26  1  0
  3 27  1  0
  4 28  1  0
  4 29  1  0
  6 30  1  0
  6 31  1  0
  7 32  1  0
  7 33  1  0
  8 34  1  0
  8 35  1  0
  9 36  1  0
  9 37  1  0
 13 38  1  0
 15 39  1  0
 18 40  1  0
 19 41  1  0
 21 42  1  0
M  END
>  <Energy>  (59) 
336.30014491061593

>  <compound_id>  (59) 
12869

>  <target_id>  (59) 
1

>  <reference_id>  (59) 
63

>  <inspiration_ids>  (59) 
[63, 3]

>  <energy_score>  (59) 
152.39029013026948

>  <distance_score>  (59) 
13.6093067896429

>  <path>  (59) 
/opt/xchem-fragalysis-2/maxwin/BulkDock/SCRATCH/511016/C12869-P63/C12869-P63.minimised.mol

>  <scratch_subdir>  (59) 
/opt/xchem-fragalysis-2/maxwin/BulkDock/SCRATCH/511016/C12869-P63

>  <fragmenstein_runtime>  (59) 
30.17498254776001

>  <fragmenstein_outcome>  (59) 
too moved

>  <fragmenstein_mode>  (59) 
expansion

>  <fragmenstein_error>  (59) 


$$$$
C12869-P3
     RDKit          3D

 42 44  0  0  0  0  0  0  0  0999 V2000
   -8.0231  -12.6054   32.6331 C   0  0  0  0  0  0  0  0  0  0  0  0
   -8.7332  -13.1156   31.4441 N   0  0  0  0  0  0  0  0  0  0  0  0
   -8.8871  -14.6598   32.5335 C   0  0  0  0  0  0  0  0  0  0  0  0
   -9.3829  -16.5763   32.2083 C   0  0  0  0  0  0  0  0  0  0  0  0
  -10.3074  -18.0186   31.7081 N   0  0  0  0  0  0  0  0  0  0  0  0
  -10.2637  -19.3005   32.5201 C   0  0  0  0  0  0  0  0  0  0  0  0
  -10.7248  -20.5300   31.7672 C   0  0  0  0  0  0  0  0  0  0  0  0
  -11.4264  -19.8978   30.6410 C   0  0  0  0  0  0  0  0  0  0  0  0
  -10.6813  -18.5904   30.3772 C   0  0  0  0  0  0  0  0  0  0  0  0
   -7.8291  -12.8483   30.0851 C   0  0  0  0  0  0  0  0  0  0  0  0
   -7.0085  -13.5781   29.5725 O   0  0  0  0  0  0  0  0  0  0  0  0
   -7.9696  -11.3667   29.1597 C   0  0  0  0  0  0  0  0  0  0  0  0
   -8.8584  -10.4232   29.5725 C   0  0  0  0  0  0  0  0  0  0  0  0
   -8.6866   -9.0957   29.2427 N   0  0  0  0  0  0  0  0  0  0  0  0
   -7.5253   -8.6692   28.5585 C   0  0  0  0  0  0  0  0  0  0  0  0
   -6.5068   -9.4938   28.0865 C   0  0  0  0  0  0  0  0  0  0  0  0
   -4.9452   -8.7904   27.9216 N   0  0  0  0  0  0  0  0  0  0  0  0
   -3.7615   -9.0959   27.1399 C   0  0  0  0  0  0  0  0  0  0  0  0
   -2.7596   -8.0889   27.2290 C   0  0  0  0  0  0  0  0  0  0  0  0
   -3.1287   -6.9549   27.9512 N   0  0  0  0  0  0  0  0  0  0  0  0
   -4.3268   -7.2350   28.4160 C   0  0  0  0  0  0  0  0  0  0  0  0
   -6.8247  -10.9152   28.2615 N   0  0  0  0  0  0  0  0  0  0  0  0
   -7.8348  -11.5441   32.4281 H   0  0  0  0  0  0  0  0  0  0  0  0
   -7.0242  -13.0432   32.7415 H   0  0  0  0  0  0  0  0  0  0  0  0
   -8.6206  -12.6017   33.5502 H   0  0  0  0  0  0  0  0  0  0  0  0
   -9.6288  -14.3241   33.2722 H   0  0  0  0  0  0  0  0  0  0  0  0
   -7.8728  -14.8196   32.9269 H   0  0  0  0  0  0  0  0  0  0  0  0
   -8.4569  -17.0415   32.5444 H   0  0  0  0  0  0  0  0  0  0  0  0
  -10.1361  -16.5060   33.0013 H   0  0  0  0  0  0  0  0  0  0  0  0
   -9.2534  -19.6257   32.7903 H   0  0  0  0  0  0  0  0  0  0  0  0
  -10.9222  -19.1856   33.3898 H   0  0  0  0  0  0  0  0  0  0  0  0
   -9.8936  -21.1585   31.4361 H   0  0  0  0  0  0  0  0  0  0  0  0
  -11.3644  -21.1616   32.3825 H   0  0  0  0  0  0  0  0  0  0  0  0
  -12.4066  -19.6576   31.0364 H   0  0  0  0  0  0  0  0  0  0  0  0
  -11.5124  -20.5395   29.7607 H   0  0  0  0  0  0  0  0  0  0  0  0
   -9.8758  -18.7809   29.7080 H   0  0  0  0  0  0  0  0  0  0  0  0
  -11.3792  -18.1461   29.6879 H   0  0  0  0  0  0  0  0  0  0  0  0
   -9.6844  -10.6435   30.2359 H   0  0  0  0  0  0  0  0  0  0  0  0
   -7.4569   -7.5879   28.4994 H   0  0  0  0  0  0  0  0  0  0  0  0
   -3.7821  -10.0210   26.6594 H   0  0  0  0  0  0  0  0  0  0  0  0
   -1.8069   -8.0094   26.7272 H   0  0  0  0  0  0  0  0  0  0  0  0
   -5.0680   -6.6219   28.9328 H   0  0  0  0  0  0  0  0  0  0  0  0
  1  2  1  0
  2  3  1  0
  3  4  1  0
  4  5  1  0
  5  6  1  0
  6  7  1  0
  7  8  1  0
  8  9  1  0
  2 10  1  0
 10 11  2  0
 10 12  1  0
 12 13  2  0
 13 14  1  0
 14 15  2  0
 15 16  1  0
 16 17  1  0
 17 18  1  0
 18 19  2  0
 19 20  1  0
 20 21  2  0
 16 22  2  0
  9  5  1  0
 22 12  1  0
 21 17  1  0
  1 23  1  0
  1 24  1  0
  1 25  1  0
  3 26  1  0
  3 27  1  0
  4 28  1  0
  4 29  1  0
  6 30  1  0
  6 31  1  0
  7 32  1  0
  7 33  1  0
  8 34  1  0
  8 35  1  0
  9 36  1  0
  9 37  1  0
 13 38  1  0
 15 39  1  0
 18 40  1  0
 19 41  1  0
 21 42  1  0
M  END
>  <Energy>  (60) 
563.13385795586487

>  <compound_id>  (60) 
12869

>  <target_id>  (60) 
1

>  <reference_id>  (60) 
3

>  <inspiration_ids>  (60) 
[63, 3]

>  <energy_score>  (60) 
379.2240031755216

>  <distance_score>  (60) 
13.703214357486514

>  <path>  (60) 
/opt/xchem-fragalysis-2/maxwin/BulkDock/SCRATCH/511016/C12869-P3/C12869-P3.minimised.mol

>  <scratch_subdir>  (60) 
/opt/xchem-fragalysis-2/maxwin/BulkDock/SCRATCH/511016/C12869-P3

>  <fragmenstein_runtime>  (60) 
19.424376487731934

>  <fragmenstein_outcome>  (60) 
too moved

>  <fragmenstein_mode>  (60) 
expansion

>  <fragmenstein_error>  (60) 


$$$$
C12870-P63
     RDKit          3D

 42 44  0  0  0  0  0  0  0  0999 V2000
  -10.6913  -25.9027   25.2190 C   0  0  0  0  0  0  0  0  0  0  0  0
  -10.2206  -24.3559   24.9903 C   0  0  0  0  0  0  0  0  0  0  0  0
  -11.6007  -23.4974   25.0390 C   0  0  0  0  0  0  0  0  0  0  0  0
  -12.8664  -24.2383   25.2422 N   0  0  0  0  0  0  0  0  0  0  0  0
  -13.1569  -24.8125   26.5396 C   0  0  0  0  0  0  0  0  0  0  0  0
  -14.5554  -25.3704   26.3246 C   0  0  0  0  0  0  0  0  0  0  0  0
  -15.1776  -24.5333   25.2172 C   0  0  0  0  0  0  0  0  0  0  0  0
  -14.0735  -23.6068   24.7401 C   0  0  0  0  0  0  0  0  0  0  0  0
   -8.8171  -24.0382   23.8656 N   0  0  0  0  0  0  0  0  0  0  0  0
   -7.1536  -23.7561   24.1909 C   0  0  0  0  0  0  0  0  0  0  0  0
   -6.6637  -23.6368   25.2778 O   0  0  0  0  0  0  0  0  0  0  0  0
   -5.9558  -23.7462   23.0503 C   0  0  0  0  0  0  0  0  0  0  0  0
   -5.4149  -24.9154   22.5904 C   0  0  0  0  0  0  0  0  0  0  0  0
   -4.1278  -25.0482   22.1433 N   0  0  0  0  0  0  0  0  0  0  0  0
   -3.3534  -23.9292   22.0855 C   0  0  0  0  0  0  0  0  0  0  0  0
   -3.8069  -22.6733   22.4206 C   0  0  0  0  0  0  0  0  0  0  0  0
   -2.9837  -21.5349   21.9485 N   0  0  0  0  0  0  0  0  0  0  0  0
   -1.5913  -21.4075   21.9503 C   0  0  0  0  0  0  0  0  0  0  0  0
   -1.2741  -20.2761   21.2250 C   0  0  0  0  0  0  0  0  0  0  0  0
   -2.4083  -19.7332   20.6899 N   0  0  0  0  0  0  0  0  0  0  0  0
   -3.4023  -20.4892   21.1381 C   0  0  0  0  0  0  0  0  0  0  0  0
   -5.0704  -22.5840   22.9926 N   0  0  0  0  0  0  0  0  0  0  0  0
  -10.7457  -26.0690   26.3023 H   0  0  0  0  0  0  0  0  0  0  0  0
  -11.6531  -26.1759   24.7902 H   0  0  0  0  0  0  0  0  0  0  0  0
  -10.0460  -26.7128   24.9016 H   0  0  0  0  0  0  0  0  0  0  0  0
   -9.7925  -24.1766   25.9865 H   0  0  0  0  0  0  0  0  0  0  0  0
  -11.6519  -22.8902   24.1272 H   0  0  0  0  0  0  0  0  0  0  0  0
  -11.5851  -22.8447   25.9129 H   0  0  0  0  0  0  0  0  0  0  0  0
  -13.0702  -24.0781   27.3375 H   0  0  0  0  0  0  0  0  0  0  0  0
  -12.5288  -25.6415   26.8542 H   0  0  0  0  0  0  0  0  0  0  0  0
  -14.4933  -26.4142   25.9901 H   0  0  0  0  0  0  0  0  0  0  0  0
  -15.1590  -25.3662   27.2329 H   0  0  0  0  0  0  0  0  0  0  0  0
  -15.5221  -25.1909   24.4116 H   0  0  0  0  0  0  0  0  0  0  0  0
  -16.0434  -23.9690   25.5779 H   0  0  0  0  0  0  0  0  0  0  0  0
  -14.2658  -22.6078   25.1118 H   0  0  0  0  0  0  0  0  0  0  0  0
  -14.0692  -23.5279   23.6511 H   0  0  0  0  0  0  0  0  0  0  0  0
   -8.9707  -24.0108   22.8577 H   0  0  0  0  0  0  0  0  0  0  0  0
   -5.9416  -25.8459   22.5633 H   0  0  0  0  0  0  0  0  0  0  0  0
   -2.3749  -24.0956   21.6450 H   0  0  0  0  0  0  0  0  0  0  0  0
   -0.9693  -22.1014   22.4949 H   0  0  0  0  0  0  0  0  0  0  0  0
   -0.2949  -19.8436   21.0550 H   0  0  0  0  0  0  0  0  0  0  0  0
   -4.4512  -20.3544   20.9039 H   0  0  0  0  0  0  0  0  0  0  0  0
  1  2  1  0
  2  3  1  0
  3  4  1  0
  4  5  1  0
  5  6  1  0
  6  7  1  0
  7  8  1  0
  2  9  1  0
  9 10  1  0
 10 11  2  0
 10 12  1  0
 12 13  2  0
 13 14  1  0
 14 15  2  0
 15 16  1  0
 16 17  1  0
 17 18  1  0
 18 19  2  0
 19 20  1  0
 20 21  2  0
 16 22  2  0
  8  4  1  0
 22 12  1  0
 21 17  1  0
  1 23  1  0
  1 24  1  0
  1 25  1  0
  2 26  1  0
  3 27  1  0
  3 28  1  0
  5 29  1  0
  5 30  1  0
  6 31  1  0
  6 32  1  0
  7 33  1  0
  7 34  1  0
  8 35  1  0
  8 36  1  0
  9 37  1  0
 13 38  1  0
 15 39  1  0
 18 40  1  0
 19 41  1  0
 21 42  1  0
M  END
>  <Energy>  (61) 
287.78018986625875

>  <compound_id>  (61) 
12870

>  <target_id>  (61) 
1

>  <reference_id>  (61) 
63

>  <inspiration_ids>  (61) 
[63, 3]

>  <energy_score>  (61) 
129.3629600960146

>  <distance_score>  (61) 
14.964772332261525

>  <path>  (61) 
/opt/xchem-fragalysis-2/maxwin/BulkDock/SCRATCH/511016/C12870-P63/C12870-P63.minimised.mol

>  <scratch_subdir>  (61) 
/opt/xchem-fragalysis-2/maxwin/BulkDock/SCRATCH/511016/C12870-P63

>  <fragmenstein_runtime>  (61) 
26.579455614089966

>  <fragmenstein_outcome>  (61) 
too moved

>  <fragmenstein_mode>  (61) 
expansion

>  <fragmenstein_error>  (61) 


$$$$
C12870-P3
     RDKit          3D

 42 44  0  0  0  0  0  0  0  0999 V2000
   -4.4028  -21.1782   27.6526 C   0  0  0  0  0  0  0  0  0  0  0  0
   -5.5172  -20.0822   27.2227 C   0  0  0  0  0  0  0  0  0  0  0  0
   -7.3361  -20.6756   27.5437 C   0  0  0  0  0  0  0  0  0  0  0  0
   -8.9543  -20.9325   28.4593 N   0  0  0  0  0  0  0  0  0  0  0  0
   -9.8904  -22.0878   28.1784 C   0  0  0  0  0  0  0  0  0  0  0  0
  -11.3380  -21.7412   28.4786 C   0  0  0  0  0  0  0  0  0  0  0  0
  -11.3989  -20.3554   27.9728 C   0  0  0  0  0  0  0  0  0  0  0  0
  -10.0410  -19.8360   28.4071 C   0  0  0  0  0  0  0  0  0  0  0  0
   -5.6450  -18.2776   26.4893 N   0  0  0  0  0  0  0  0  0  0  0  0
   -5.1709  -17.7290   25.3379 C   0  0  0  0  0  0  0  0  0  0  0  0
   -4.5948  -18.2447   24.3891 O   0  0  0  0  0  0  0  0  0  0  0  0
   -5.4657  -15.7238   25.5661 C   0  0  0  0  0  0  0  0  0  0  0  0
   -7.1561  -15.3576   26.3695 C   0  0  0  0  0  0  0  0  0  0  0  0
   -8.5076  -14.6445   25.7750 N   0  0  0  0  0  0  0  0  0  0  0  0
   -8.4855  -13.8764   24.4401 C   0  0  0  0  0  0  0  0  0  0  0  0
   -7.0557  -13.5433   23.6391 C   0  0  0  0  0  0  0  0  0  0  0  0
   -7.5056  -12.7883   22.1797 N   0  0  0  0  0  0  0  0  0  0  0  0
   -8.0055  -11.4901   22.1450 C   0  0  0  0  0  0  0  0  0  0  0  0
   -7.4732  -10.8977   21.0117 C   0  0  0  0  0  0  0  0  0  0  0  0
   -6.7464  -11.7909   20.2760 N   0  0  0  0  0  0  0  0  0  0  0  0
   -6.8198  -12.9191   20.9509 C   0  0  0  0  0  0  0  0  0  0  0  0
   -5.1390  -14.3537   23.8941 N   0  0  0  0  0  0  0  0  0  0  0  0
   -3.6848  -21.0104   28.4394 H   0  0  0  0  0  0  0  0  0  0  0  0
   -3.8691  -21.6148   26.8030 H   0  0  0  0  0  0  0  0  0  0  0  0
   -4.8902  -22.0407   28.0939 H   0  0  0  0  0  0  0  0  0  0  0  0
   -5.2914  -20.5167   26.2228 H   0  0  0  0  0  0  0  0  0  0  0  0
   -7.3845  -19.7023   27.8669 H   0  0  0  0  0  0  0  0  0  0  0  0
   -6.9251  -21.4585   28.0497 H   0  0  0  0  0  0  0  0  0  0  0  0
   -9.7319  -22.8819   28.9085 H   0  0  0  0  0  0  0  0  0  0  0  0
   -9.8535  -22.4056   27.1329 H   0  0  0  0  0  0  0  0  0  0  0  0
  -12.0428  -22.4144   27.9825 H   0  0  0  0  0  0  0  0  0  0  0  0
  -11.5258  -21.7711   29.5586 H   0  0  0  0  0  0  0  0  0  0  0  0
  -11.5311  -20.3462   26.8888 H   0  0  0  0  0  0  0  0  0  0  0  0
  -12.2053  -19.7686   28.4075 H   0  0  0  0  0  0  0  0  0  0  0  0
  -10.2158  -19.3634   29.3803 H   0  0  0  0  0  0  0  0  0  0  0  0
   -9.7426  -19.0782   27.7284 H   0  0  0  0  0  0  0  0  0  0  0  0
   -6.1115  -17.6235   26.9514 H   0  0  0  0  0  0  0  0  0  0  0  0
   -7.1128  -14.8896   27.3892 H   0  0  0  0  0  0  0  0  0  0  0  0
   -9.4430  -13.4977   24.1007 H   0  0  0  0  0  0  0  0  0  0  0  0
   -8.5702  -11.0791   22.9690 H   0  0  0  0  0  0  0  0  0  0  0  0
   -7.5853   -9.8686   20.6933 H   0  0  0  0  0  0  0  0  0  0  0  0
   -6.3366  -13.8497   20.6861 H   0  0  0  0  0  0  0  0  0  0  0  0
  1  2  1  0
  2  3  1  0
  3  4  1  0
  4  5  1  0
  5  6  1  0
  6  7  1  0
  7  8  1  0
  2  9  1  0
  9 10  1  0
 10 11  2  0
 10 12  1  0
 12 13  2  0
 13 14  1  0
 14 15  2  0
 15 16  1  0
 16 17  1  0
 17 18  1  0
 18 19  2  0
 19 20  1  0
 20 21  2  0
 16 22  2  0
  8  4  1  0
 22 12  1  0
 21 17  1  0
  1 23  1  0
  1 24  1  0
  1 25  1  0
  2 26  1  0
  3 27  1  0
  3 28  1  0
  5 29  1  0
  5 30  1  0
  6 31  1  0
  6 32  1  0
  7 33  1  0
  7 34  1  0
  8 35  1  0
  8 36  1  0
  9 37  1  0
 13 38  1  0
 15 39  1  0
 18 40  1  0
 19 41  1  0
 21 42  1  0
M  END
>  <Energy>  (62) 
1193.9289165943017

>  <compound_id>  (62) 
12870

>  <target_id>  (62) 
1

>  <reference_id>  (62) 
3

>  <inspiration_ids>  (62) 
[63, 3]

>  <energy_score>  (62) 
1035.5116868240684

>  <distance_score>  (62) 
13.948828743804787

>  <path>  (62) 
/opt/xchem-fragalysis-2/maxwin/BulkDock/SCRATCH/511016/C12870-P3/C12870-P3.minimised.mol

>  <scratch_subdir>  (62) 
/opt/xchem-fragalysis-2/maxwin/BulkDock/SCRATCH/511016/C12870-P3

>  <fragmenstein_runtime>  (62) 
18.90153670310974

>  <fragmenstein_outcome>  (62) 
too moved

>  <fragmenstein_mode>  (62) 
expansion

>  <fragmenstein_error>  (62) 


$$$$
C12871-P63
     RDKit          3D

 45 47  0  0  0  0  0  0  0  0999 V2000
   -1.7456  -14.2635   32.4124 C   0  0  0  0  0  0  0  0  0  0  0  0
   -2.8902  -13.2569   32.4394 C   0  0  0  0  0  0  0  0  0  0  0  0
   -4.1292  -13.7837   31.6464 C   0  0  0  0  0  0  0  0  0  0  0  0
   -4.3512  -15.3188   31.5277 C   0  0  0  0  0  0  0  0  0  0  0  0
   -4.6172  -16.0675   32.7536 N   0  0  0  0  0  0  0  0  0  0  0  0
   -4.8750  -17.4948   32.4862 C   0  0  0  0  0  0  0  0  0  0  0  0
   -5.5343  -17.9509   33.7683 C   0  0  0  0  0  0  0  0  0  0  0  0
   -6.4125  -16.7841   34.1635 C   0  0  0  0  0  0  0  0  0  0  0  0
   -5.7145  -15.5625   33.5802 C   0  0  0  0  0  0  0  0  0  0  0  0
   -2.5069  -11.8523   32.0349 N   0  0  0  0  0  0  0  0  0  0  0  0
   -1.2391  -11.1287   32.1616 C   0  0  0  0  0  0  0  0  0  0  0  0
   -0.1624  -11.4972   32.5464 O   0  0  0  0  0  0  0  0  0  0  0  0
   -1.2865   -9.6297   31.8598 C   0  0  0  0  0  0  0  0  0  0  0  0
   -1.6227   -8.8284   32.9313 C   0  0  0  0  0  0  0  0  0  0  0  0
   -1.5382   -7.4670   32.8783 N   0  0  0  0  0  0  0  0  0  0  0  0
   -1.0671   -6.9146   31.7193 C   0  0  0  0  0  0  0  0  0  0  0  0
   -0.7310   -7.6667   30.6027 C   0  0  0  0  0  0  0  0  0  0  0  0
   -0.4511   -6.9818   29.3306 N   0  0  0  0  0  0  0  0  0  0  0  0
   -0.2859   -7.5758   28.0910 C   0  0  0  0  0  0  0  0  0  0  0  0
   -0.3929   -6.5832   27.1461 C   0  0  0  0  0  0  0  0  0  0  0  0
   -0.4050   -5.3595   27.7519 N   0  0  0  0  0  0  0  0  0  0  0  0
   -0.4015   -5.6219   29.0478 C   0  0  0  0  0  0  0  0  0  0  0  0
   -0.8623   -9.0613   30.6619 N   0  0  0  0  0  0  0  0  0  0  0  0
   -0.8670  -13.8793   32.9387 H   0  0  0  0  0  0  0  0  0  0  0  0
   -1.4413  -14.5057   31.3922 H   0  0  0  0  0  0  0  0  0  0  0  0
   -2.0161  -15.1964   32.9158 H   0  0  0  0  0  0  0  0  0  0  0  0
   -3.1943  -13.1515   33.4885 H   0  0  0  0  0  0  0  0  0  0  0  0
   -5.0297  -13.3020   32.0477 H   0  0  0  0  0  0  0  0  0  0  0  0
   -4.0385  -13.3946   30.6255 H   0  0  0  0  0  0  0  0  0  0  0  0
   -3.4729  -15.7554   31.0361 H   0  0  0  0  0  0  0  0  0  0  0  0
   -5.1654  -15.4572   30.8190 H   0  0  0  0  0  0  0  0  0  0  0  0
   -3.9437  -18.0388   32.2991 H   0  0  0  0  0  0  0  0  0  0  0  0
   -5.5396  -17.6509   31.6334 H   0  0  0  0  0  0  0  0  0  0  0  0
   -6.1006  -18.8728   33.6606 H   0  0  0  0  0  0  0  0  0  0  0  0
   -4.7743  -18.1154   34.5428 H   0  0  0  0  0  0  0  0  0  0  0  0
   -6.5212  -16.7164   35.2507 H   0  0  0  0  0  0  0  0  0  0  0  0
   -7.4122  -16.8874   33.7388 H   0  0  0  0  0  0  0  0  0  0  0  0
   -5.2952  -14.9496   34.3862 H   0  0  0  0  0  0  0  0  0  0  0  0
   -6.4322  -14.9304   33.0482 H   0  0  0  0  0  0  0  0  0  0  0  0
   -3.2299  -11.2057   31.7537 H   0  0  0  0  0  0  0  0  0  0  0  0
   -1.9225   -9.2426   33.8886 H   0  0  0  0  0  0  0  0  0  0  0  0
   -1.0216   -5.8317   31.7447 H   0  0  0  0  0  0  0  0  0  0  0  0
   -0.1647   -8.6468   28.0150 H   0  0  0  0  0  0  0  0  0  0  0  0
   -0.4152   -6.6969   26.0682 H   0  0  0  0  0  0  0  0  0  0  0  0
   -0.4039   -4.8656   29.8203 H   0  0  0  0  0  0  0  0  0  0  0  0
  1  2  1  0
  2  3  1  0
  3  4  1  0
  4  5  1  0
  5  6  1  0
  6  7  1  0
  7  8  1  0
  8  9  1  0
  2 10  1  0
 10 11  1  0
 11 12  2  0
 11 13  1  0
 13 14  2  0
 14 15  1  0
 15 16  2  0
 16 17  1  0
 17 18  1  0
 18 19  1  0
 19 20  2  0
 20 21  1  0
 21 22  2  0
 17 23  2  0
  9  5  1  0
 23 13  1  0
 22 18  1  0
  1 24  1  0
  1 25  1  0
  1 26  1  0
  2 27  1  0
  3 28  1  0
  3 29  1  0
  4 30  1  0
  4 31  1  0
  6 32  1  0
  6 33  1  0
  7 34  1  0
  7 35  1  0
  8 36  1  0
  8 37  1  0
  9 38  1  0
  9 39  1  0
 10 40  1  0
 14 41  1  0
 16 42  1  0
 19 43  1  0
 20 44  1  0
 22 45  1  0
M  END
>  <Energy>  (63) 
142.81585504850207

>  <compound_id>  (63) 
12871

>  <target_id>  (63) 
1

>  <reference_id>  (63) 
63

>  <inspiration_ids>  (63) 
[63, 3]

>  <energy_score>  (63) 
5.880373052706432

>  <distance_score>  (63) 
14.300936222771487

>  <path>  (63) 
/opt/xchem-fragalysis-2/maxwin/BulkDock/SCRATCH/511016/C12871-P63/C12871-P63.minimised.mol

>  <scratch_subdir>  (63) 
/opt/xchem-fragalysis-2/maxwin/BulkDock/SCRATCH/511016/C12871-P63

>  <fragmenstein_runtime>  (63) 
37.54603552818298

>  <fragmenstein_outcome>  (63) 
too moved

>  <fragmenstein_mode>  (63) 
expansion

>  <fragmenstein_error>  (63) 


$$$$
C12871-P3
     RDKit          3D

 45 47  0  0  0  0  0  0  0  0999 V2000
   -5.6064  -15.7539   25.8816 C   0  0  0  0  0  0  0  0  0  0  0  0
   -7.0843  -15.8331   26.6843 C   0  0  0  0  0  0  0  0  0  0  0  0
   -6.9761  -17.8906   26.7626 C   0  0  0  0  0  0  0  0  0  0  0  0
   -7.4676  -19.6926   27.5891 C   0  0  0  0  0  0  0  0  0  0  0  0
   -9.0416  -20.3923   28.4198 N   0  0  0  0  0  0  0  0  0  0  0  0
   -9.7355  -21.6975   28.1232 C   0  0  0  0  0  0  0  0  0  0  0  0
  -11.2578  -21.5636   28.0513 C   0  0  0  0  0  0  0  0  0  0  0  0
  -11.4280  -20.0927   27.9336 C   0  0  0  0  0  0  0  0  0  0  0  0
  -10.2668  -19.6007   28.7677 C   0  0  0  0  0  0  0  0  0  0  0  0
   -6.7420  -14.2986   27.4090 N   0  0  0  0  0  0  0  0  0  0  0  0
   -7.2328  -12.8044   27.0045 C   0  0  0  0  0  0  0  0  0  0  0  0
   -8.0196  -12.4874   26.1470 O   0  0  0  0  0  0  0  0  0  0  0  0
   -6.5052  -11.3152   27.7447 C   0  0  0  0  0  0  0  0  0  0  0  0
   -7.4971  -10.4892   28.1076 C   0  0  0  0  0  0  0  0  0  0  0  0
   -7.1031   -9.2414   28.3336 N   0  0  0  0  0  0  0  0  0  0  0  0
   -5.6880   -8.8660   28.0375 C   0  0  0  0  0  0  0  0  0  0  0  0
   -4.5209   -9.3065   27.2837 C   0  0  0  0  0  0  0  0  0  0  0  0
   -2.9359   -8.4775   26.7622 N   0  0  0  0  0  0  0  0  0  0  0  0
   -1.7113   -8.0822   27.3704 C   0  0  0  0  0  0  0  0  0  0  0  0
   -0.5864   -7.6279   26.4571 C   0  0  0  0  0  0  0  0  0  0  0  0
   -0.8783   -7.6925   25.2083 N   0  0  0  0  0  0  0  0  0  0  0  0
   -2.1171   -7.5899   25.5387 C   0  0  0  0  0  0  0  0  0  0  0  0
   -5.0195  -10.5854   27.3288 N   0  0  0  0  0  0  0  0  0  0  0  0
   -4.9109  -15.0759   26.3872 H   0  0  0  0  0  0  0  0  0  0  0  0
   -5.6740  -15.4957   24.8237 H   0  0  0  0  0  0  0  0  0  0  0  0
   -5.0246  -16.6734   25.8248 H   0  0  0  0  0  0  0  0  0  0  0  0
   -8.0077  -15.5457   26.1814 H   0  0  0  0  0  0  0  0  0  0  0  0
   -6.9310  -17.7039   25.7465 H   0  0  0  0  0  0  0  0  0  0  0  0
   -5.8987  -18.0655   26.5476 H   0  0  0  0  0  0  0  0  0  0  0  0
   -7.2259  -20.5884   26.9891 H   0  0  0  0  0  0  0  0  0  0  0  0
   -6.5612  -20.0228   28.0581 H   0  0  0  0  0  0  0  0  0  0  0  0
   -9.4755  -22.1499   27.1756 H   0  0  0  0  0  0  0  0  0  0  0  0
   -9.6069  -22.3573   28.9868 H   0  0  0  0  0  0  0  0  0  0  0  0
  -11.6945  -22.1074   27.2079 H   0  0  0  0  0  0  0  0  0  0  0  0
  -11.7163  -21.9388   28.9732 H   0  0  0  0  0  0  0  0  0  0  0  0
  -12.3782  -19.7432   28.3193 H   0  0  0  0  0  0  0  0  0  0  0  0
  -11.3795  -19.8293   26.8832 H   0  0  0  0  0  0  0  0  0  0  0  0
  -10.5697  -19.8729   29.7957 H   0  0  0  0  0  0  0  0  0  0  0  0
  -10.1306  -18.5514   28.8916 H   0  0  0  0  0  0  0  0  0  0  0  0
   -6.0124  -14.2312   28.1129 H   0  0  0  0  0  0  0  0  0  0  0  0
   -8.5376  -10.7426   28.2124 H   0  0  0  0  0  0  0  0  0  0  0  0
   -5.6257   -7.9589   28.6558 H   0  0  0  0  0  0  0  0  0  0  0  0
   -1.4510   -8.6906   28.2064 H   0  0  0  0  0  0  0  0  0  0  0  0
    0.4655   -7.4349   26.6406 H   0  0  0  0  0  0  0  0  0  0  0  0
   -2.2133   -6.4911   25.4992 H   0  0  0  0  0  0  0  0  0  0  0  0
  1  2  1  0
  2  3  1  0
  3  4  1  0
  4  5  1  0
  5  6  1  0
  6  7  1  0
  7  8  1  0
  8  9  1  0
  2 10  1  0
 10 11  1  0
 11 12  2  0
 11 13  1  0
 13 14  2  0
 14 15  1  0
 15 16  2  0
 16 17  1  0
 17 18  1  0
 18 19  1  0
 19 20  2  0
 20 21  1  0
 21 22  2  0
 17 23  2  0
  9  5  1  0
 23 13  1  0
 22 18  1  0
  1 24  1  0
  1 25  1  0
  1 26  1  0
  2 27  1  0
  3 28  1  0
  3 29  1  0
  4 30  1  0
  4 31  1  0
  6 32  1  0
  6 33  1  0
  7 34  1  0
  7 35  1  0
  8 36  1  0
  8 37  1  0
  9 38  1  0
  9 39  1  0
 10 40  1  0
 14 41  1  0
 16 42  1  0
 19 43  1  0
 20 44  1  0
 22 45  1  0
M  END
>  <Energy>  (64) 
927.61813804375834

>  <compound_id>  (64) 
12871

>  <target_id>  (64) 
1

>  <reference_id>  (64) 
3

>  <inspiration_ids>  (64) 
[63, 3]

>  <energy_score>  (64) 
790.6826560479757

>  <distance_score>  (64) 
12.18014294721727

>  <path>  (64) 
/opt/xchem-fragalysis-2/maxwin/BulkDock/SCRATCH/511016/C12871-P3/C12871-P3.minimised.mol

>  <scratch_subdir>  (64) 
/opt/xchem-fragalysis-2/maxwin/BulkDock/SCRATCH/511016/C12871-P3

>  <fragmenstein_runtime>  (64) 
24.382462978363037

>  <fragmenstein_outcome>  (64) 
too moved

>  <fragmenstein_mode>  (64) 
expansion

>  <fragmenstein_error>  (64) 


$$$$
C12872-P63
     RDKit          3D

 41 43  0  0  0  0  0  0  0  0999 V2000
   -3.5658  -16.2348   29.2861 C   0  0  0  0  0  0  0  0  0  0  0  0
   -2.7080  -16.8818   27.6421 C   0  0  0  0  0  0  0  0  0  0  0  0
   -2.1136  -15.4157   27.2253 N   0  0  0  0  0  0  0  0  0  0  0  0
   -2.0634  -14.6697   25.7866 C   0  0  0  0  0  0  0  0  0  0  0  0
   -2.3919  -15.1183   24.7242 O   0  0  0  0  0  0  0  0  0  0  0  0
   -1.3940  -13.0219   25.5872 C   0  0  0  0  0  0  0  0  0  0  0  0
   -2.4129  -11.6927   25.1943 C   0  0  0  0  0  0  0  0  0  0  0  0
   -1.9385  -10.2356   23.9877 N   0  0  0  0  0  0  0  0  0  0  0  0
    0.0481  -10.5134   23.4536 C   0  0  0  0  0  0  0  0  0  0  0  0
    1.2149  -11.5515   24.9377 C   0  0  0  0  0  0  0  0  0  0  0  0
    1.5070  -11.1081   26.8218 N   0  0  0  0  0  0  0  0  0  0  0  0
    0.6283  -10.4173   27.9355 C   0  0  0  0  0  0  0  0  0  0  0  0
    1.3846  -10.0243   29.0192 C   0  0  0  0  0  0  0  0  0  0  0  0
    2.6494   -9.7894   28.6735 N   0  0  0  0  0  0  0  0  0  0  0  0
    2.5724   -9.8801   27.3841 C   0  0  0  0  0  0  0  0  0  0  0  0
    0.3953  -12.8185   26.0409 N   0  0  0  0  0  0  0  0  0  0  0  0
   -1.9103  -18.5108   26.8605 C   0  0  0  0  0  0  0  0  0  0  0  0
   -0.8461  -18.3056   26.3082 O   0  0  0  0  0  0  0  0  0  0  0  0
   -2.6762  -20.0100   27.1416 N   0  0  0  0  0  0  0  0  0  0  0  0
   -2.2007  -21.4315   26.8961 C   0  0  0  0  0  0  0  0  0  0  0  0
   -2.6134  -22.3607   25.7622 C   0  0  0  0  0  0  0  0  0  0  0  0
   -3.9883  -21.8787   25.6895 C   0  0  0  0  0  0  0  0  0  0  0  0
   -3.6514  -20.4040   25.9271 C   0  0  0  0  0  0  0  0  0  0  0  0
   -3.3197  -16.6319   30.2872 H   0  0  0  0  0  0  0  0  0  0  0  0
   -4.6647  -16.3792   29.3349 H   0  0  0  0  0  0  0  0  0  0  0  0
   -3.0914  -15.2528   29.5156 H   0  0  0  0  0  0  0  0  0  0  0  0
   -3.6457  -16.9978   27.2050 H   0  0  0  0  0  0  0  0  0  0  0  0
   -1.6950  -14.8165   27.9247 H   0  0  0  0  0  0  0  0  0  0  0  0
   -3.4165  -12.0941   24.9170 H   0  0  0  0  0  0  0  0  0  0  0  0
    0.0699  -10.6572   22.3500 H   0  0  0  0  0  0  0  0  0  0  0  0
   -0.4282  -10.2939   27.8114 H   0  0  0  0  0  0  0  0  0  0  0  0
    1.0144   -9.7570   30.0019 H   0  0  0  0  0  0  0  0  0  0  0  0
    3.1154   -9.2705   26.6748 H   0  0  0  0  0  0  0  0  0  0  0  0
   -1.3706  -21.7480   27.5426 H   0  0  0  0  0  0  0  0  0  0  0  0
   -2.8514  -21.8891   27.6822 H   0  0  0  0  0  0  0  0  0  0  0  0
   -2.5457  -23.4182   26.0353 H   0  0  0  0  0  0  0  0  0  0  0  0
   -2.0997  -22.2186   24.8093 H   0  0  0  0  0  0  0  0  0  0  0  0
   -4.6193  -22.3007   26.4800 H   0  0  0  0  0  0  0  0  0  0  0  0
   -4.4415  -22.0675   24.7141 H   0  0  0  0  0  0  0  0  0  0  0  0
   -3.2334  -20.0793   25.0016 H   0  0  0  0  0  0  0  0  0  0  0  0
   -4.6552  -20.0509   26.1692 H   0  0  0  0  0  0  0  0  0  0  0  0
  1  2  1  0
  2  3  1  0
  3  4  1  0
  4  5  2  0
  4  6  1  0
  6  7  2  0
  7  8  1  0
  8  9  2  0
  9 10  1  0
 10 11  1  0
 11 12  1  0
 12 13  2  0
 13 14  1  0
 14 15  2  0
 10 16  2  0
  2 17  1  0
 17 18  2  0
 17 19  1  0
 19 20  1  0
 20 21  1  0
 21 22  1  0
 22 23  1  0
 16  6  1  0
 23 19  1  0
 15 11  1  0
  1 24  1  0
  1 25  1  0
  1 26  1  0
  2 27  1  0
  3 28  1  0
  7 29  1  0
  9 30  1  0
 12 31  1  0
 13 32  1  0
 15 33  1  0
 20 34  1  0
 20 35  1  0
 21 36  1  0
 21 37  1  0
 22 38  1  0
 22 39  1  0
 23 40  1  0
 23 41  1  0
M  END
>  <Energy>  (65) 
1403.1147063867975

>  <compound_id>  (65) 
12872

>  <target_id>  (65) 
1

>  <reference_id>  (65) 
63

>  <inspiration_ids>  (65) 
[63, 3]

>  <energy_score>  (65) 
1260.462732995611

>  <distance_score>  (65) 
14.409487332723982

>  <path>  (65) 
/opt/xchem-fragalysis-2/maxwin/BulkDock/SCRATCH/511016/C12872-P63/C12872-P63.minimised.mol

>  <scratch_subdir>  (65) 
/opt/xchem-fragalysis-2/maxwin/BulkDock/SCRATCH/511016/C12872-P63

>  <fragmenstein_runtime>  (65) 
41.4185357093811

>  <fragmenstein_outcome>  (65) 
too moved

>  <fragmenstein_mode>  (65) 
expansion

>  <fragmenstein_error>  (65) 


$$$$
C12872-P3
     RDKit          3D

 41 43  0  0  0  0  0  0  0  0999 V2000
   -4.8452  -21.1449   26.2914 C   0  0  0  0  0  0  0  0  0  0  0  0
   -5.3250  -21.3746   27.8908 C   0  0  0  0  0  0  0  0  0  0  0  0
   -3.8061  -21.5856   28.1312 N   0  0  0  0  0  0  0  0  0  0  0  0
   -2.9236  -22.7218   27.7881 C   0  0  0  0  0  0  0  0  0  0  0  0
   -3.1812  -23.7973   27.3140 O   0  0  0  0  0  0  0  0  0  0  0  0
   -1.4195  -22.5593   27.9187 C   0  0  0  0  0  0  0  0  0  0  0  0
   -0.7856  -23.2025   28.9605 C   0  0  0  0  0  0  0  0  0  0  0  0
    0.5468  -23.4367   28.9627 N   0  0  0  0  0  0  0  0  0  0  0  0
    1.2249  -23.0999   27.8308 C   0  0  0  0  0  0  0  0  0  0  0  0
    0.6402  -22.5085   26.7175 C   0  0  0  0  0  0  0  0  0  0  0  0
    1.4628  -22.2142   25.5406 N   0  0  0  0  0  0  0  0  0  0  0  0
    1.0188  -22.0776   24.2360 C   0  0  0  0  0  0  0  0  0  0  0  0
    2.1427  -21.9226   23.4482 C   0  0  0  0  0  0  0  0  0  0  0  0
    3.2560  -21.7731   24.2250 N   0  0  0  0  0  0  0  0  0  0  0  0
    2.8431  -22.0416   25.4479 C   0  0  0  0  0  0  0  0  0  0  0  0
   -0.7094  -22.2170   26.7514 N   0  0  0  0  0  0  0  0  0  0  0  0
   -7.2244  -20.7001   27.8046 C   0  0  0  0  0  0  0  0  0  0  0  0
   -7.2183  -19.5374   27.6435 O   0  0  0  0  0  0  0  0  0  0  0  0
   -8.8145  -21.5360   28.0689 N   0  0  0  0  0  0  0  0  0  0  0  0
  -10.2924  -20.9993   28.0174 C   0  0  0  0  0  0  0  0  0  0  0  0
  -11.2157  -22.1691   28.3468 C   0  0  0  0  0  0  0  0  0  0  0  0
  -10.5685  -22.7167   29.5679 C   0  0  0  0  0  0  0  0  0  0  0  0
   -9.3984  -21.7368   29.6466 C   0  0  0  0  0  0  0  0  0  0  0  0
   -4.6475  -20.1008   26.1349 H   0  0  0  0  0  0  0  0  0  0  0  0
   -4.0197  -21.7950   25.9949 H   0  0  0  0  0  0  0  0  0  0  0  0
   -5.5014  -21.4785   25.4974 H   0  0  0  0  0  0  0  0  0  0  0  0
   -5.4183  -22.4070   28.1278 H   0  0  0  0  0  0  0  0  0  0  0  0
   -3.2323  -20.7973   28.4389 H   0  0  0  0  0  0  0  0  0  0  0  0
   -1.3010  -23.6655   29.7854 H   0  0  0  0  0  0  0  0  0  0  0  0
    2.2765  -23.3689   27.8654 H   0  0  0  0  0  0  0  0  0  0  0  0
   -0.0289  -22.1821   23.9867 H   0  0  0  0  0  0  0  0  0  0  0  0
    2.1915  -21.8524   22.3674 H   0  0  0  0  0  0  0  0  0  0  0  0
    3.4999  -22.1136   26.3035 H   0  0  0  0  0  0  0  0  0  0  0  0
  -10.6624  -20.7413   27.0413 H   0  0  0  0  0  0  0  0  0  0  0  0
  -10.4189  -20.0491   28.5612 H   0  0  0  0  0  0  0  0  0  0  0  0
  -12.2342  -21.8291   28.5035 H   0  0  0  0  0  0  0  0  0  0  0  0
  -11.2198  -22.9114   27.5408 H   0  0  0  0  0  0  0  0  0  0  0  0
  -11.2062  -22.6352   30.4530 H   0  0  0  0  0  0  0  0  0  0  0  0
  -10.2963  -23.7607   29.4904 H   0  0  0  0  0  0  0  0  0  0  0  0
   -9.9898  -20.9516   30.1612 H   0  0  0  0  0  0  0  0  0  0  0  0
   -8.6120  -22.1344   30.3000 H   0  0  0  0  0  0  0  0  0  0  0  0
  1  2  1  0
  2  3  1  0
  3  4  1  0
  4  5  2  0
  4  6  1  0
  6  7  2  0
  7  8  1  0
  8  9  2  0
  9 10  1  0
 10 11  1  0
 11 12  1  0
 12 13  2  0
 13 14  1  0
 14 15  2  0
 10 16  2  0
  2 17  1  0
 17 18  2  0
 17 19  1  0
 19 20  1  0
 20 21  1  0
 21 22  1  0
 22 23  1  0
 16  6  1  0
 23 19  1  0
 15 11  1  0
  1 24  1  0
  1 25  1  0
  1 26  1  0
  2 27  1  0
  3 28  1  0
  7 29  1  0
  9 30  1  0
 12 31  1  0
 13 32  1  0
 15 33  1  0
 20 34  1  0
 20 35  1  0
 21 36  1  0
 21 37  1  0
 22 38  1  0
 22 39  1  0
 23 40  1  0
 23 41  1  0
M  END
>  <Energy>  (66) 
465.26635963515838

>  <compound_id>  (66) 
12872

>  <target_id>  (66) 
1

>  <reference_id>  (66) 
3

>  <inspiration_ids>  (66) 
[63, 3]

>  <energy_score>  (66) 
322.6143862439541

>  <distance_score>  (66) 
14.728555246970156

>  <path>  (66) 
/opt/xchem-fragalysis-2/maxwin/BulkDock/SCRATCH/511016/C12872-P3/C12872-P3.minimised.mol

>  <scratch_subdir>  (66) 
/opt/xchem-fragalysis-2/maxwin/BulkDock/SCRATCH/511016/C12872-P3

>  <fragmenstein_runtime>  (66) 
24.895297288894653

>  <fragmenstein_outcome>  (66) 
too moved

>  <fragmenstein_mode>  (66) 
expansion

>  <fragmenstein_error>  (66) 


$$$$
C12873-P63
     RDKit          3D

 50 51  0  0  0  0  0  0  0  0999 V2000
   -0.3669  -19.4975   30.8325 C   0  0  0  0  0  0  0  0  0  0  0  0
   -0.7439  -19.5974   29.3608 C   0  0  0  0  0  0  0  0  0  0  0  0
    0.4426  -20.1315   28.5467 C   0  0  0  0  0  0  0  0  0  0  0  0
    0.2820  -19.9206   27.0317 C   0  0  0  0  0  0  0  0  0  0  0  0
    1.2952  -20.6360   26.0578 C   0  0  0  0  0  0  0  0  0  0  0  0
    1.6898  -22.0599   26.5214 C   0  0  0  0  0  0  0  0  0  0  0  0
    0.5709  -22.9745   26.6298 N   0  0  0  0  0  0  0  0  0  0  0  0
   -0.0754  -23.7940   25.6414 C   0  0  0  0  0  0  0  0  0  0  0  0
    0.1947  -23.9908   24.4914 O   0  0  0  0  0  0  0  0  0  0  0  0
   -1.2678  -24.5603   26.2703 C   0  0  0  0  0  0  0  0  0  0  0  0
   -2.5828  -23.9363   26.0807 N   0  0  0  0  0  0  0  0  0  0  0  0
   -2.8391  -22.7291   26.8389 C   0  0  0  0  0  0  0  0  0  0  0  0
   -4.1336  -22.2197   26.2338 C   0  0  0  0  0  0  0  0  0  0  0  0
   -4.1851  -22.8002   24.8253 C   0  0  0  0  0  0  0  0  0  0  0  0
   -2.9158  -23.6175   24.6917 C   0  0  0  0  0  0  0  0  0  0  0  0
    2.4957  -19.9086   25.5558 N   0  0  0  0  0  0  0  0  0  0  0  0
    3.3328  -20.1458   24.3918 C   0  0  0  0  0  0  0  0  0  0  0  0
    3.2215  -20.9378   23.5004 O   0  0  0  0  0  0  0  0  0  0  0  0
    4.5369  -19.2686   24.2599 C   0  0  0  0  0  0  0  0  0  0  0  0
    4.9090  -18.2132   24.9676 N   0  0  0  0  0  0  0  0  0  0  0  0
    6.1720  -17.8646   24.5027 C   0  0  0  0  0  0  0  0  0  0  0  0
    6.5441  -18.6528   23.4446 C   0  0  0  0  0  0  0  0  0  0  0  0
    5.4748  -19.4786   23.2524 N   0  0  0  0  0  0  0  0  0  0  0  0
    0.4688  -18.8042   30.9745 H   0  0  0  0  0  0  0  0  0  0  0  0
   -1.2068  -19.1298   31.4273 H   0  0  0  0  0  0  0  0  0  0  0  0
   -0.0689  -20.4738   31.2274 H   0  0  0  0  0  0  0  0  0  0  0  0
   -1.5868  -20.2804   29.2389 H   0  0  0  0  0  0  0  0  0  0  0  0
   -1.0448  -18.6096   28.9954 H   0  0  0  0  0  0  0  0  0  0  0  0
    1.3691  -19.6339   28.8588 H   0  0  0  0  0  0  0  0  0  0  0  0
    0.5578  -21.1923   28.7876 H   0  0  0  0  0  0  0  0  0  0  0  0
    0.2809  -18.8485   26.8285 H   0  0  0  0  0  0  0  0  0  0  0  0
   -0.7203  -20.2695   26.7589 H   0  0  0  0  0  0  0  0  0  0  0  0
    0.7222  -20.7757   25.1290 H   0  0  0  0  0  0  0  0  0  0  0  0
    2.3759  -22.5041   25.7909 H   0  0  0  0  0  0  0  0  0  0  0  0
    2.2144  -22.0372   27.4816 H   0  0  0  0  0  0  0  0  0  0  0  0
    0.0178  -22.9825   27.4778 H   0  0  0  0  0  0  0  0  0  0  0  0
   -1.0870  -24.7397   27.3370 H   0  0  0  0  0  0  0  0  0  0  0  0
   -1.2788  -25.5586   25.8139 H   0  0  0  0  0  0  0  0  0  0  0  0
   -2.9408  -22.9290   27.9098 H   0  0  0  0  0  0  0  0  0  0  0  0
   -2.0539  -21.9835   26.6963 H   0  0  0  0  0  0  0  0  0  0  0  0
   -4.1515  -21.1252   26.2154 H   0  0  0  0  0  0  0  0  0  0  0  0
   -4.9870  -22.5675   26.8234 H   0  0  0  0  0  0  0  0  0  0  0  0
   -5.0623  -23.4404   24.7010 H   0  0  0  0  0  0  0  0  0  0  0  0
   -4.2313  -22.0142   24.0645 H   0  0  0  0  0  0  0  0  0  0  0  0
   -2.1508  -22.9977   24.2105 H   0  0  0  0  0  0  0  0  0  0  0  0
   -3.0708  -24.5134   24.0828 H   0  0  0  0  0  0  0  0  0  0  0  0
    2.8496  -19.0980   26.0591 H   0  0  0  0  0  0  0  0  0  0  0  0
    6.7445  -17.0581   24.9412 H   0  0  0  0  0  0  0  0  0  0  0  0
    7.4303  -18.6863   22.8264 H   0  0  0  0  0  0  0  0  0  0  0  0
    5.3838  -20.2222   22.5714 H   0  0  0  0  0  0  0  0  0  0  0  0
  1  2  1  0
  2  3  1  0
  3  4  1  0
  4  5  1  0
  5  6  1  0
  6  7  1  0
  7  8  1  0
  8  9  2  0
  8 10  1  0
 10 11  1  0
 11 12  1  0
 12 13  1  0
 13 14  1  0
 14 15  1  0
  5 16  1  0
 16 17  1  0
 17 18  2  0
 17 19  1  0
 19 20  2  0
 20 21  1  0
 21 22  2  0
 22 23  1  0
 15 11  1  0
 23 19  1  0
  1 24  1  0
  1 25  1  0
  1 26  1  0
  2 27  1  0
  2 28  1  0
  3 29  1  0
  3 30  1  0
  4 31  1  0
  4 32  1  0
  5 33  1  0
  6 34  1  0
  6 35  1  0
  7 36  1  0
 10 37  1  0
 10 38  1  0
 12 39  1  0
 12 40  1  0
 13 41  1  0
 13 42  1  0
 14 43  1  0
 14 44  1  0
 15 45  1  0
 15 46  1  0
 16 47  1  0
 21 48  1  0
 22 49  1  0
 23 50  1  0
M  END
>  <Energy>  (67) 
61.942693651878045

>  <compound_id>  (67) 
12873

>  <target_id>  (67) 
1

>  <reference_id>  (67) 
63

>  <inspiration_ids>  (67) 
[63, 3]

>  <energy_score>  (67) 
-11.64289948623491

>  <distance_score>  (67) 
14.07503678567293

>  <path>  (67) 
/opt/xchem-fragalysis-2/maxwin/BulkDock/SCRATCH/511016/C12873-P63/C12873-P63.minimised.mol

>  <scratch_subdir>  (67) 
/opt/xchem-fragalysis-2/maxwin/BulkDock/SCRATCH/511016/C12873-P63

>  <fragmenstein_runtime>  (67) 
52.30544900894165

>  <fragmenstein_outcome>  (67) 
too moved

>  <fragmenstein_mode>  (67) 
expansion

>  <fragmenstein_error>  (67) 


$$$$
C12873-P3
     RDKit          3D

 50 51  0  0  0  0  0  0  0  0999 V2000
  -13.0726  -27.8468   33.3668 C   0  0  0  0  0  0  0  0  0  0  0  0
  -12.6869  -27.7205   31.9065 C   0  0  0  0  0  0  0  0  0  0  0  0
  -12.2800  -26.3035   31.5106 C   0  0  0  0  0  0  0  0  0  0  0  0
  -11.7832  -26.2804   30.0597 C   0  0  0  0  0  0  0  0  0  0  0  0
  -12.6223  -25.5038   29.0304 C   0  0  0  0  0  0  0  0  0  0  0  0
  -14.1468  -25.6058   29.2863 C   0  0  0  0  0  0  0  0  0  0  0  0
  -14.9343  -25.4106   28.0929 N   0  0  0  0  0  0  0  0  0  0  0  0
  -15.9514  -24.4383   27.7805 C   0  0  0  0  0  0  0  0  0  0  0  0
  -16.4588  -23.5931   28.4590 O   0  0  0  0  0  0  0  0  0  0  0  0
  -16.3339  -24.5677   26.2868 C   0  0  0  0  0  0  0  0  0  0  0  0
  -15.4524  -23.8038   25.3898 N   0  0  0  0  0  0  0  0  0  0  0  0
  -14.0175  -24.0057   25.5618 C   0  0  0  0  0  0  0  0  0  0  0  0
  -13.3889  -22.8414   24.8299 C   0  0  0  0  0  0  0  0  0  0  0  0
  -14.3105  -21.7147   25.1871 C   0  0  0  0  0  0  0  0  0  0  0  0
  -15.6839  -22.3597   25.3829 C   0  0  0  0  0  0  0  0  0  0  0  0
  -12.1292  -24.1429   28.8395 N   0  0  0  0  0  0  0  0  0  0  0  0
  -11.3151  -23.3168   29.6694 C   0  0  0  0  0  0  0  0  0  0  0  0
  -10.8910  -23.4961   30.7709 O   0  0  0  0  0  0  0  0  0  0  0  0
  -11.0935  -22.0300   29.0179 C   0  0  0  0  0  0  0  0  0  0  0  0
  -11.3129  -21.7610   27.7425 N   0  0  0  0  0  0  0  0  0  0  0  0
  -11.2538  -20.3989   27.6519 C   0  0  0  0  0  0  0  0  0  0  0  0
  -10.8371  -19.8463   28.8306 C   0  0  0  0  0  0  0  0  0  0  0  0
  -10.7444  -20.8927   29.6923 N   0  0  0  0  0  0  0  0  0  0  0  0
  -12.1980  -27.6905   34.0023 H   0  0  0  0  0  0  0  0  0  0  0  0
  -13.8499  -27.1276   33.6397 H   0  0  0  0  0  0  0  0  0  0  0  0
  -13.4538  -28.8524   33.5717 H   0  0  0  0  0  0  0  0  0  0  0  0
  -11.8670  -28.4207   31.7062 H   0  0  0  0  0  0  0  0  0  0  0  0
  -13.5340  -28.0447   31.2911 H   0  0  0  0  0  0  0  0  0  0  0  0
  -13.1326  -25.6464   31.6684 H   0  0  0  0  0  0  0  0  0  0  0  0
  -11.4799  -25.9611   32.1736 H   0  0  0  0  0  0  0  0  0  0  0  0
  -10.7642  -25.8926   30.0465 H   0  0  0  0  0  0  0  0  0  0  0  0
  -11.6987  -27.3119   29.6913 H   0  0  0  0  0  0  0  0  0  0  0  0
  -12.4206  -25.9741   28.0579 H   0  0  0  0  0  0  0  0  0  0  0  0
  -14.4049  -26.6111   29.6314 H   0  0  0  0  0  0  0  0  0  0  0  0
  -14.4826  -24.8797   30.0304 H   0  0  0  0  0  0  0  0  0  0  0  0
  -14.6880  -25.9139   27.2489 H   0  0  0  0  0  0  0  0  0  0  0  0
  -16.3173  -25.6251   25.9958 H   0  0  0  0  0  0  0  0  0  0  0  0
  -17.3771  -24.2509   26.1657 H   0  0  0  0  0  0  0  0  0  0  0  0
  -13.7154  -23.9185   26.6015 H   0  0  0  0  0  0  0  0  0  0  0  0
  -13.7044  -24.9808   25.1840 H   0  0  0  0  0  0  0  0  0  0  0  0
  -12.3599  -22.6482   25.1484 H   0  0  0  0  0  0  0  0  0  0  0  0
  -13.3895  -22.9683   23.7481 H   0  0  0  0  0  0  0  0  0  0  0  0
  -13.9125  -21.2751   26.1017 H   0  0  0  0  0  0  0  0  0  0  0  0
  -14.3148  -20.9500   24.4121 H   0  0  0  0  0  0  0  0  0  0  0  0
  -16.2125  -22.0291   26.2735 H   0  0  0  0  0  0  0  0  0  0  0  0
  -16.3366  -22.1021   24.5410 H   0  0  0  0  0  0  0  0  0  0  0  0
  -12.3653  -23.6293   27.9914 H   0  0  0  0  0  0  0  0  0  0  0  0
  -11.5595  -19.9138   26.7408 H   0  0  0  0  0  0  0  0  0  0  0  0
  -10.6919  -18.8433   29.1767 H   0  0  0  0  0  0  0  0  0  0  0  0
  -10.6020  -20.8544   30.6954 H   0  0  0  0  0  0  0  0  0  0  0  0
  1  2  1  0
  2  3  1  0
  3  4  1  0
  4  5  1  0
  5  6  1  0
  6  7  1  0
  7  8  1  0
  8  9  2  0
  8 10  1  0
 10 11  1  0
 11 12  1  0
 12 13  1  0
 13 14  1  0
 14 15  1  0
  5 16  1  0
 16 17  1  0
 17 18  2  0
 17 19  1  0
 19 20  2  0
 20 21  1  0
 21 22  2  0
 22 23  1  0
 15 11  1  0
 23 19  1  0
  1 24  1  0
  1 25  1  0
  1 26  1  0
  2 27  1  0
  2 28  1  0
  3 29  1  0
  3 30  1  0
  4 31  1  0
  4 32  1  0
  5 33  1  0
  6 34  1  0
  6 35  1  0
  7 36  1  0
 10 37  1  0
 10 38  1  0
 12 39  1  0
 12 40  1  0
 13 41  1  0
 13 42  1  0
 14 43  1  0
 14 44  1  0
 15 45  1  0
 15 46  1  0
 16 47  1  0
 21 48  1  0
 22 49  1  0
 23 50  1  0
M  END
>  <Energy>  (68) 
61.62384737608069

>  <compound_id>  (68) 
12873

>  <target_id>  (68) 
1

>  <reference_id>  (68) 
3

>  <inspiration_ids>  (68) 
[63, 3]

>  <energy_score>  (68) 
-11.961745762031171

>  <distance_score>  (68) 
18.47259341854241

>  <path>  (68) 
/opt/xchem-fragalysis-2/maxwin/BulkDock/SCRATCH/511016/C12873-P3/C12873-P3.minimised.mol

>  <scratch_subdir>  (68) 
/opt/xchem-fragalysis-2/maxwin/BulkDock/SCRATCH/511016/C12873-P3

>  <fragmenstein_runtime>  (68) 
44.84312415122986

>  <fragmenstein_outcome>  (68) 
too moved

>  <fragmenstein_mode>  (68) 
expansion

>  <fragmenstein_error>  (68) 


$$$$
C12874-P63
     RDKit          3D

 53 54  0  0  0  0  0  0  0  0999 V2000
   -4.5656  -12.9030   28.8901 C   0  0  0  0  0  0  0  0  0  0  0  0
   -3.9859  -13.9641   27.9602 C   0  0  0  0  0  0  0  0  0  0  0  0
   -3.9869  -13.5497   26.4707 C   0  0  0  0  0  0  0  0  0  0  0  0
   -2.6767  -13.0872   25.5306 C   0  0  0  0  0  0  0  0  0  0  0  0
   -1.0815  -14.0475   24.8243 C   0  0  0  0  0  0  0  0  0  0  0  0
   -2.3634  -15.1320   24.8012 C   0  0  0  0  0  0  0  0  0  0  0  0
   -2.9197  -15.8896   25.8015 N   0  0  0  0  0  0  0  0  0  0  0  0
   -3.3086  -17.2200   25.8252 C   0  0  0  0  0  0  0  0  0  0  0  0
   -3.3386  -18.0378   24.9634 O   0  0  0  0  0  0  0  0  0  0  0  0
   -3.6159  -17.5208   27.2384 C   0  0  0  0  0  0  0  0  0  0  0  0
   -4.9680  -17.9239   27.2267 N   0  0  0  0  0  0  0  0  0  0  0  0
   -6.1192  -17.0787   27.9855 C   0  0  0  0  0  0  0  0  0  0  0  0
   -7.7356  -18.1756   27.9494 C   0  0  0  0  0  0  0  0  0  0  0  0
   -6.8034  -19.8903   27.1907 C   0  0  0  0  0  0  0  0  0  0  0  0
   -5.1941  -19.3454   26.6116 C   0  0  0  0  0  0  0  0  0  0  0  0
    0.5918  -13.9183   23.6863 N   0  0  0  0  0  0  0  0  0  0  0  0
    2.0708  -12.7285   23.7888 C   0  0  0  0  0  0  0  0  0  0  0  0
    2.1532  -11.9748   24.6532 O   0  0  0  0  0  0  0  0  0  0  0  0
    3.3875  -12.5125   22.5102 C   0  0  0  0  0  0  0  0  0  0  0  0
    3.5911  -13.1457   21.2570 N   0  0  0  0  0  0  0  0  0  0  0  0
    4.7428  -12.7410   20.3509 C   0  0  0  0  0  0  0  0  0  0  0  0
    5.1504  -13.1891   18.9696 C   0  0  0  0  0  0  0  0  0  0  0  0
    5.3385  -11.7274   20.9730 C   0  0  0  0  0  0  0  0  0  0  0  0
    4.3528  -11.3867   22.1682 N   0  0  0  0  0  0  0  0  0  0  0  0
   -4.5483  -13.2624   29.9241 H   0  0  0  0  0  0  0  0  0  0  0  0
   -5.6076  -12.6882   28.6303 H   0  0  0  0  0  0  0  0  0  0  0  0
   -4.0072  -11.9650   28.8499 H   0  0  0  0  0  0  0  0  0  0  0  0
   -4.6355  -14.8331   28.0682 H   0  0  0  0  0  0  0  0  0  0  0  0
   -3.0025  -14.2799   28.3081 H   0  0  0  0  0  0  0  0  0  0  0  0
   -4.6564  -12.6839   26.4218 H   0  0  0  0  0  0  0  0  0  0  0  0
   -4.5794  -14.2788   25.9008 H   0  0  0  0  0  0  0  0  0  0  0  0
   -3.3552  -12.7913   24.7349 H   0  0  0  0  0  0  0  0  0  0  0  0
   -2.3509  -12.1029   25.8123 H   0  0  0  0  0  0  0  0  0  0  0  0
   -0.7642  -13.3988   25.6134 H   0  0  0  0  0  0  0  0  0  0  0  0
   -3.1844  -15.0639   24.0731 H   0  0  0  0  0  0  0  0  0  0  0  0
   -1.6765  -15.7877   24.4838 H   0  0  0  0  0  0  0  0  0  0  0  0
   -2.9479  -15.5263   26.7370 H   0  0  0  0  0  0  0  0  0  0  0  0
   -3.4411  -16.7361   27.9763 H   0  0  0  0  0  0  0  0  0  0  0  0
   -2.8441  -18.2721   27.4556 H   0  0  0  0  0  0  0  0  0  0  0  0
   -6.3460  -16.1205   27.5016 H   0  0  0  0  0  0  0  0  0  0  0  0
   -5.6837  -16.9139   28.9735 H   0  0  0  0  0  0  0  0  0  0  0  0
   -8.5003  -17.6378   27.3767 H   0  0  0  0  0  0  0  0  0  0  0  0
   -8.0477  -18.2861   28.9363 H   0  0  0  0  0  0  0  0  0  0  0  0
   -6.1801  -20.6946   27.6404 H   0  0  0  0  0  0  0  0  0  0  0  0
   -7.4424  -20.7960   27.4276 H   0  0  0  0  0  0  0  0  0  0  0  0
   -4.4099  -20.0672   26.8492 H   0  0  0  0  0  0  0  0  0  0  0  0
   -5.1584  -19.2738   25.5247 H   0  0  0  0  0  0  0  0  0  0  0  0
    0.6480  -14.4525   22.7997 H   0  0  0  0  0  0  0  0  0  0  0  0
    4.2861  -13.4960   18.3735 H   0  0  0  0  0  0  0  0  0  0  0  0
    5.8750  -14.0069   18.9949 H   0  0  0  0  0  0  0  0  0  0  0  0
    5.6519  -12.3821   18.4229 H   0  0  0  0  0  0  0  0  0  0  0  0
    6.2926  -11.2428   20.8747 H   0  0  0  0  0  0  0  0  0  0  0  0
    4.7276  -10.6546   22.7409 H   0  0  0  0  0  0  0  0  0  0  0  0
  1  2  1  0
  2  3  1  0
  3  4  1  0
  4  5  1  0
  5  6  1  0
  6  7  1  0
  7  8  1  0
  8  9  2  0
  8 10  1  0
 10 11  1  0
 11 12  1  0
 12 13  1  0
 13 14  1  0
 14 15  1  0
  5 16  1  0
 16 17  1  0
 17 18  2  0
 17 19  1  0
 19 20  2  0
 20 21  1  0
 21 22  1  0
 21 23  2  0
 23 24  1  0
 15 11  1  0
 24 19  1  0
  1 25  1  0
  1 26  1  0
  1 27  1  0
  2 28  1  0
  2 29  1  0
  3 30  1  0
  3 31  1  0
  4 32  1  0
  4 33  1  0
  5 34  1  0
  6 35  1  0
  6 36  1  0
  7 37  1  0
 10 38  1  0
 10 39  1  0
 12 40  1  0
 12 41  1  0
 13 42  1  0
 13 43  1  0
 14 44  1  0
 14 45  1  0
 15 46  1  0
 15 47  1  0
 16 48  1  0
 22 49  1  0
 22 50  1  0
 22 51  1  0
 23 52  1  0
 24 53  1  0
M  END
>  <Energy>  (69) 
774.8489233587834

>  <compound_id>  (69) 
12874

>  <target_id>  (69) 
1

>  <reference_id>  (69) 
63

>  <inspiration_ids>  (69) 
[63, 3]

>  <energy_score>  (69) 
676.8599990523288

>  <distance_score>  (69) 
11.801467020115629

>  <path>  (69) 
/opt/xchem-fragalysis-2/maxwin/BulkDock/SCRATCH/511016/C12874-P63/C12874-P63.minimised.mol

>  <scratch_subdir>  (69) 
/opt/xchem-fragalysis-2/maxwin/BulkDock/SCRATCH/511016/C12874-P63

>  <fragmenstein_runtime>  (69) 
35.49282765388489

>  <fragmenstein_outcome>  (69) 
too moved

>  <fragmenstein_mode>  (69) 
expansion

>  <fragmenstein_error>  (69) 


$$$$
C12874-P3
     RDKit          3D

 53 54  0  0  0  0  0  0  0  0999 V2000
   -8.1990  -14.2156   21.6245 C   0  0  0  0  0  0  0  0  0  0  0  0
   -8.2868  -15.3306   20.5987 C   0  0  0  0  0  0  0  0  0  0  0  0
   -6.9368  -15.9302   20.1672 C   0  0  0  0  0  0  0  0  0  0  0  0
   -5.9224  -14.9033   19.5802 C   0  0  0  0  0  0  0  0  0  0  0  0
   -5.3063  -15.1086   18.1108 C   0  0  0  0  0  0  0  0  0  0  0  0
   -4.4363  -16.3856   17.9883 C   0  0  0  0  0  0  0  0  0  0  0  0
   -5.0696  -17.6272   18.3669 N   0  0  0  0  0  0  0  0  0  0  0  0
   -4.9181  -18.4491   19.5534 C   0  0  0  0  0  0  0  0  0  0  0  0
   -4.2868  -18.2652   20.5564 O   0  0  0  0  0  0  0  0  0  0  0  0
   -5.7214  -19.7722   19.3627 C   0  0  0  0  0  0  0  0  0  0  0  0
   -6.4293  -20.2216   20.5806 N   0  0  0  0  0  0  0  0  0  0  0  0
   -5.5362  -20.7124   21.6380 C   0  0  0  0  0  0  0  0  0  0  0  0
   -6.2162  -21.9383   22.2367 C   0  0  0  0  0  0  0  0  0  0  0  0
   -7.5725  -21.9899   21.5770 C   0  0  0  0  0  0  0  0  0  0  0  0
   -7.3234  -21.3368   20.2449 C   0  0  0  0  0  0  0  0  0  0  0  0
   -4.4807  -13.9181   17.5893 N   0  0  0  0  0  0  0  0  0  0  0  0
   -4.7218  -12.9985   16.4869 C   0  0  0  0  0  0  0  0  0  0  0  0
   -5.5870  -12.9863   15.6571 O   0  0  0  0  0  0  0  0  0  0  0  0
   -3.6872  -11.8713   16.3380 C   0  0  0  0  0  0  0  0  0  0  0  0
   -3.1087  -11.0894   17.2619 N   0  0  0  0  0  0  0  0  0  0  0  0
   -2.3683  -10.1023   16.5770 C   0  0  0  0  0  0  0  0  0  0  0  0
   -1.6435   -8.9703   17.2462 C   0  0  0  0  0  0  0  0  0  0  0  0
   -2.4391  -10.3420   15.2254 C   0  0  0  0  0  0  0  0  0  0  0  0
   -3.2778  -11.4152   15.0887 N   0  0  0  0  0  0  0  0  0  0  0  0
   -9.2014  -13.9474   21.9737 H   0  0  0  0  0  0  0  0  0  0  0  0
   -7.7502  -13.3123   21.2023 H   0  0  0  0  0  0  0  0  0  0  0  0
   -7.6088  -14.5215   22.4903 H   0  0  0  0  0  0  0  0  0  0  0  0
   -8.9315  -16.1310   20.9687 H   0  0  0  0  0  0  0  0  0  0  0  0
   -8.7909  -14.9355   19.7074 H   0  0  0  0  0  0  0  0  0  0  0  0
   -7.1650  -16.6935   19.4182 H   0  0  0  0  0  0  0  0  0  0  0  0
   -6.4807  -16.4339   21.0270 H   0  0  0  0  0  0  0  0  0  0  0  0
   -5.0940  -14.8271   20.2917 H   0  0  0  0  0  0  0  0  0  0  0  0
   -6.4101  -13.9233   19.5504 H   0  0  0  0  0  0  0  0  0  0  0  0
   -6.1561  -15.1948   17.4223 H   0  0  0  0  0  0  0  0  0  0  0  0
   -4.1214  -16.5058   16.9452 H   0  0  0  0  0  0  0  0  0  0  0  0
   -3.5261  -16.2856   18.5809 H   0  0  0  0  0  0  0  0  0  0  0  0
   -5.7467  -18.0585   17.7500 H   0  0  0  0  0  0  0  0  0  0  0  0
   -5.0211  -20.5331   18.9955 H   0  0  0  0  0  0  0  0  0  0  0  0
   -6.4772  -19.6214   18.5830 H   0  0  0  0  0  0  0  0  0  0  0  0
   -5.3982  -19.9344   22.3949 H   0  0  0  0  0  0  0  0  0  0  0  0
   -4.5449  -20.9972   21.2648 H   0  0  0  0  0  0  0  0  0  0  0  0
   -5.6444  -22.8379   21.9765 H   0  0  0  0  0  0  0  0  0  0  0  0
   -6.2947  -21.9067   23.3218 H   0  0  0  0  0  0  0  0  0  0  0  0
   -7.8866  -23.0184   21.4265 H   0  0  0  0  0  0  0  0  0  0  0  0
   -8.3197  -21.4473   22.1651 H   0  0  0  0  0  0  0  0  0  0  0  0
   -6.8284  -22.0552   19.5765 H   0  0  0  0  0  0  0  0  0  0  0  0
   -8.2456  -21.0141   19.7571 H   0  0  0  0  0  0  0  0  0  0  0  0
   -3.6039  -13.6713   18.0414 H   0  0  0  0  0  0  0  0  0  0  0  0
   -1.4201   -9.2022   18.2873 H   0  0  0  0  0  0  0  0  0  0  0  0
   -2.2850   -8.0827   17.2385 H   0  0  0  0  0  0  0  0  0  0  0  0
   -0.7221   -8.7195   16.7158 H   0  0  0  0  0  0  0  0  0  0  0  0
   -2.0197   -9.8290   14.3715 H   0  0  0  0  0  0  0  0  0  0  0  0
   -3.6172  -11.8084   14.2219 H   0  0  0  0  0  0  0  0  0  0  0  0
  1  2  1  0
  2  3  1  0
  3  4  1  0
  4  5  1  0
  5  6  1  0
  6  7  1  0
  7  8  1  0
  8  9  2  0
  8 10  1  0
 10 11  1  0
 11 12  1  0
 12 13  1  0
 13 14  1  0
 14 15  1  0
  5 16  1  0
 16 17  1  0
 17 18  2  0
 17 19  1  0
 19 20  2  0
 20 21  1  0
 21 22  1  0
 21 23  2  0
 23 24  1  0
 15 11  1  0
 24 19  1  0
  1 25  1  0
  1 26  1  0
  1 27  1  0
  2 28  1  0
  2 29  1  0
  3 30  1  0
  3 31  1  0
  4 32  1  0
  4 33  1  0
  5 34  1  0
  6 35  1  0
  6 36  1  0
  7 37  1  0
 10 38  1  0
 10 39  1  0
 12 40  1  0
 12 41  1  0
 13 42  1  0
 13 43  1  0
 14 44  1  0
 14 45  1  0
 15 46  1  0
 15 47  1  0
 16 48  1  0
 22 49  1  0
 22 50  1  0
 22 51  1  0
 23 52  1  0
 24 53  1  0
M  END
>  <Energy>  (70) 
79.2286216317476

>  <compound_id>  (70) 
12874

>  <target_id>  (70) 
1

>  <reference_id>  (70) 
3

>  <inspiration_ids>  (70) 
[63, 3]

>  <energy_score>  (70) 
-18.760302674684453

>  <distance_score>  (70) 
14.280433489517973

>  <path>  (70) 
/opt/xchem-fragalysis-2/maxwin/BulkDock/SCRATCH/511016/C12874-P3/C12874-P3.minimised.mol

>  <scratch_subdir>  (70) 
/opt/xchem-fragalysis-2/maxwin/BulkDock/SCRATCH/511016/C12874-P3

>  <fragmenstein_runtime>  (70) 
41.46822738647461

>  <fragmenstein_outcome>  (70) 
too moved

>  <fragmenstein_mode>  (70) 
expansion

>  <fragmenstein_error>  (70) 


$$$$
C12875-P63
     RDKit          3D

 53 54  0  0  0  0  0  0  0  0999 V2000
   -6.0590  -16.0928   27.6785 C   0  0  0  0  0  0  0  0  0  0  0  0
   -7.6220  -16.1074   27.6245 C   0  0  0  0  0  0  0  0  0  0  0  0
   -7.9217  -14.5571   27.5045 C   0  0  0  0  0  0  0  0  0  0  0  0
   -8.8148  -17.3641   27.2214 C   0  0  0  0  0  0  0  0  0  0  0  0
   -9.3179  -16.2815   25.8084 C   0  0  0  0  0  0  0  0  0  0  0  0
   -8.2201  -15.4219   24.7629 C   0  0  0  0  0  0  0  0  0  0  0  0
   -7.8195  -13.9886   24.5981 N   0  0  0  0  0  0  0  0  0  0  0  0
   -6.5233  -13.3809   24.1573 C   0  0  0  0  0  0  0  0  0  0  0  0
   -5.4645  -13.8951   23.9065 O   0  0  0  0  0  0  0  0  0  0  0  0
   -6.6111  -11.8267   23.9057 C   0  0  0  0  0  0  0  0  0  0  0  0
   -5.4240  -11.1431   23.2636 N   0  0  0  0  0  0  0  0  0  0  0  0
   -5.1591  -11.0191   21.9123 C   0  0  0  0  0  0  0  0  0  0  0  0
   -4.1081  -10.1319   21.7911 C   0  0  0  0  0  0  0  0  0  0  0  0
   -3.7006   -9.7099   23.0324 N   0  0  0  0  0  0  0  0  0  0  0  0
   -4.5361  -10.2841   23.8822 C   0  0  0  0  0  0  0  0  0  0  0  0
   -8.8132  -19.0770   28.2067 N   0  0  0  0  0  0  0  0  0  0  0  0
   -9.7506  -20.7996   27.8411 C   0  0  0  0  0  0  0  0  0  0  0  0
  -10.5853  -20.9629   26.9084 O   0  0  0  0  0  0  0  0  0  0  0  0
   -9.7027  -22.0499   28.6598 C   0  0  0  0  0  0  0  0  0  0  0  0
  -11.0928  -22.5264   29.1884 N   0  0  0  0  0  0  0  0  0  0  0  0
  -11.0127  -23.5849   30.2302 C   0  0  0  0  0  0  0  0  0  0  0  0
  -10.4999  -24.8283   29.5056 C   0  0  0  0  0  0  0  0  0  0  0  0
  -11.1163  -24.7249   28.1181 C   0  0  0  0  0  0  0  0  0  0  0  0
  -11.8002  -23.3538   28.1348 C   0  0  0  0  0  0  0  0  0  0  0  0
   -5.6133  -15.7083   26.7538 H   0  0  0  0  0  0  0  0  0  0  0  0
   -5.7113  -15.3970   28.4543 H   0  0  0  0  0  0  0  0  0  0  0  0
   -5.5927  -17.0331   27.9343 H   0  0  0  0  0  0  0  0  0  0  0  0
   -7.8198  -16.3574   28.5852 H   0  0  0  0  0  0  0  0  0  0  0  0
   -7.2132  -14.0777   26.8285 H   0  0  0  0  0  0  0  0  0  0  0  0
   -7.7302  -14.0271   28.4433 H   0  0  0  0  0  0  0  0  0  0  0  0
   -8.9305  -14.2611   27.2242 H   0  0  0  0  0  0  0  0  0  0  0  0
   -9.8738  -17.2016   27.3676 H   0  0  0  0  0  0  0  0  0  0  0  0
   -9.9563  -15.4933   26.2234 H   0  0  0  0  0  0  0  0  0  0  0  0
   -9.9965  -16.8377   25.1596 H   0  0  0  0  0  0  0  0  0  0  0  0
   -8.6712  -15.5604   23.7841 H   0  0  0  0  0  0  0  0  0  0  0  0
   -7.2543  -15.9112   24.7327 H   0  0  0  0  0  0  0  0  0  0  0  0
   -8.5297  -13.2669   24.6371 H   0  0  0  0  0  0  0  0  0  0  0  0
   -6.7641  -11.3243   24.8663 H   0  0  0  0  0  0  0  0  0  0  0  0
   -7.4560  -11.6180   23.2408 H   0  0  0  0  0  0  0  0  0  0  0  0
   -5.7342  -11.5568   21.1711 H   0  0  0  0  0  0  0  0  0  0  0  0
   -3.6207   -9.7914   20.8852 H   0  0  0  0  0  0  0  0  0  0  0  0
   -4.5416  -10.1318   24.9537 H   0  0  0  0  0  0  0  0  0  0  0  0
   -8.1393  -19.2067   28.9333 H   0  0  0  0  0  0  0  0  0  0  0  0
   -9.8447  -22.8222   27.9011 H   0  0  0  0  0  0  0  0  0  0  0  0
   -8.7375  -22.5772   28.5283 H   0  0  0  0  0  0  0  0  0  0  0  0
  -12.0238  -23.6939   30.5697 H   0  0  0  0  0  0  0  0  0  0  0  0
  -10.4948  -23.3536   31.1668 H   0  0  0  0  0  0  0  0  0  0  0  0
   -9.4085  -24.8130   29.4172 H   0  0  0  0  0  0  0  0  0  0  0  0
  -10.7383  -25.7584   30.0195 H   0  0  0  0  0  0  0  0  0  0  0  0
  -10.3331  -24.7819   27.3535 H   0  0  0  0  0  0  0  0  0  0  0  0
  -11.8183  -25.5274   27.8890 H   0  0  0  0  0  0  0  0  0  0  0  0
  -12.8267  -23.4919   28.4692 H   0  0  0  0  0  0  0  0  0  0  0  0
  -11.8291  -22.9237   27.1358 H   0  0  0  0  0  0  0  0  0  0  0  0
  1  2  1  0
  2  3  1  0
  2  4  1  0
  4  5  1  0
  5  6  1  0
  6  7  1  0
  7  8  1  0
  8  9  2  0
  8 10  1  0
 10 11  1  0
 11 12  1  0
 12 13  2  0
 13 14  1  0
 14 15  2  0
  4 16  1  0
 16 17  1  0
 17 18  2  0
 17 19  1  0
 19 20  1  0
 20 21  1  0
 21 22  1  0
 22 23  1  0
 23 24  1  0
 15 11  1  0
 24 20  1  0
  1 25  1  0
  1 26  1  0
  1 27  1  0
  2 28  1  0
  3 29  1  0
  3 30  1  0
  3 31  1  0
  4 32  1  0
  5 33  1  0
  5 34  1  0
  6 35  1  0
  6 36  1  0
  7 37  1  0
 10 38  1  0
 10 39  1  0
 12 40  1  0
 13 41  1  0
 15 42  1  0
 16 43  1  0
 19 44  1  0
 19 45  1  0
 21 46  1  0
 21 47  1  0
 22 48  1  0
 22 49  1  0
 23 50  1  0
 23 51  1  0
 24 52  1  0
 24 53  1  0
M  END
>  <Energy>  (71) 
514.0770846712262

>  <compound_id>  (71) 
12875

>  <target_id>  (71) 
1

>  <reference_id>  (71) 
63

>  <inspiration_ids>  (71) 
[63, 3]

>  <energy_score>  (71) 
423.4816088839184

>  <distance_score>  (71) 
12.54640860602586

>  <path>  (71) 
/opt/xchem-fragalysis-2/maxwin/BulkDock/SCRATCH/511016/C12875-P63/C12875-P63.minimised.mol

>  <scratch_subdir>  (71) 
/opt/xchem-fragalysis-2/maxwin/BulkDock/SCRATCH/511016/C12875-P63

>  <fragmenstein_runtime>  (71) 
56.99028182029724

>  <fragmenstein_outcome>  (71) 
too moved

>  <fragmenstein_mode>  (71) 
expansion

>  <fragmenstein_error>  (71) 


$$$$
C12875-P3
     RDKit          3D

 53 54  0  0  0  0  0  0  0  0999 V2000
   -8.0181  -22.4957   32.3414 C   0  0  0  0  0  0  0  0  0  0  0  0
   -8.7347  -21.6508   33.3706 C   0  0  0  0  0  0  0  0  0  0  0  0
   -9.9461  -22.3038   33.9328 C   0  0  0  0  0  0  0  0  0  0  0  0
   -9.0965  -20.2141   32.9483 C   0  0  0  0  0  0  0  0  0  0  0  0
   -7.6570  -19.2745   33.1183 C   0  0  0  0  0  0  0  0  0  0  0  0
   -7.1378  -17.6838   32.6412 C   0  0  0  0  0  0  0  0  0  0  0  0
   -6.0238  -16.4547   32.5869 N   0  0  0  0  0  0  0  0  0  0  0  0
   -4.6955  -16.3431   31.8442 C   0  0  0  0  0  0  0  0  0  0  0  0
   -4.0969  -17.1559   31.1853 O   0  0  0  0  0  0  0  0  0  0  0  0
   -4.0743  -14.8682   31.8759 C   0  0  0  0  0  0  0  0  0  0  0  0
   -3.1221  -14.3501   30.7824 N   0  0  0  0  0  0  0  0  0  0  0  0
   -2.5547  -14.9678   29.6890 C   0  0  0  0  0  0  0  0  0  0  0  0
   -1.7787  -14.0216   29.0422 C   0  0  0  0  0  0  0  0  0  0  0  0
   -1.8232  -12.8287   29.7052 N   0  0  0  0  0  0  0  0  0  0  0  0
   -2.6289  -13.0456   30.7280 C   0  0  0  0  0  0  0  0  0  0  0  0
   -9.9712  -20.1417   31.7862 N   0  0  0  0  0  0  0  0  0  0  0  0
  -10.5790  -21.2006   30.9739 C   0  0  0  0  0  0  0  0  0  0  0  0
  -10.5724  -22.3955   31.1104 O   0  0  0  0  0  0  0  0  0  0  0  0
  -11.2661  -20.5957   29.7453 C   0  0  0  0  0  0  0  0  0  0  0  0
  -11.0792  -21.3333   28.4770 N   0  0  0  0  0  0  0  0  0  0  0  0
  -11.3977  -22.7573   28.4762 C   0  0  0  0  0  0  0  0  0  0  0  0
  -11.5601  -23.0752   26.9988 C   0  0  0  0  0  0  0  0  0  0  0  0
  -12.2899  -21.8633   26.4648 C   0  0  0  0  0  0  0  0  0  0  0  0
  -11.8792  -20.7392   27.4041 C   0  0  0  0  0  0  0  0  0  0  0  0
   -8.2076  -23.5669   32.4466 H   0  0  0  0  0  0  0  0  0  0  0  0
   -6.9626  -22.3312   32.5169 H   0  0  0  0  0  0  0  0  0  0  0  0
   -8.2172  -22.2308   31.3050 H   0  0  0  0  0  0  0  0  0  0  0  0
   -8.0778  -21.6267   34.2427 H   0  0  0  0  0  0  0  0  0  0  0  0
  -10.0498  -21.9502   34.9644 H   0  0  0  0  0  0  0  0  0  0  0  0
  -10.8628  -22.0183   33.4261 H   0  0  0  0  0  0  0  0  0  0  0  0
   -9.8342  -23.3872   33.9079 H   0  0  0  0  0  0  0  0  0  0  0  0
   -9.8369  -19.9066   33.6814 H   0  0  0  0  0  0  0  0  0  0  0  0
   -6.9967  -19.9584   32.6041 H   0  0  0  0  0  0  0  0  0  0  0  0
   -7.5077  -19.2639   34.1717 H   0  0  0  0  0  0  0  0  0  0  0  0
   -8.0810  -17.1400   32.5672 H   0  0  0  0  0  0  0  0  0  0  0  0
   -6.6363  -18.0851   31.7774 H   0  0  0  0  0  0  0  0  0  0  0  0
   -6.2701  -15.5530   32.9675 H   0  0  0  0  0  0  0  0  0  0  0  0
   -3.4948  -14.7668   32.7998 H   0  0  0  0  0  0  0  0  0  0  0  0
   -4.8950  -14.1425   31.8621 H   0  0  0  0  0  0  0  0  0  0  0  0
   -2.7460  -16.0075   29.4625 H   0  0  0  0  0  0  0  0  0  0  0  0
   -1.1938  -14.1488   28.1411 H   0  0  0  0  0  0  0  0  0  0  0  0
   -2.9036  -12.3109   31.4732 H   0  0  0  0  0  0  0  0  0  0  0  0
  -10.2523  -19.2376   31.4183 H   0  0  0  0  0  0  0  0  0  0  0  0
  -12.2938  -20.6046   30.0483 H   0  0  0  0  0  0  0  0  0  0  0  0
  -10.9596  -19.5562   29.5912 H   0  0  0  0  0  0  0  0  0  0  0  0
  -10.6079  -23.3578   28.9218 H   0  0  0  0  0  0  0  0  0  0  0  0
  -12.3271  -22.9859   28.9991 H   0  0  0  0  0  0  0  0  0  0  0  0
  -10.5868  -23.1577   26.5041 H   0  0  0  0  0  0  0  0  0  0  0  0
  -12.1110  -24.0044   26.8268 H   0  0  0  0  0  0  0  0  0  0  0  0
  -12.0341  -21.6589   25.4209 H   0  0  0  0  0  0  0  0  0  0  0  0
  -13.3717  -22.0276   26.5212 H   0  0  0  0  0  0  0  0  0  0  0  0
  -12.7649  -20.2252   27.7606 H   0  0  0  0  0  0  0  0  0  0  0  0
  -11.2980  -19.9845   26.8935 H   0  0  0  0  0  0  0  0  0  0  0  0
  1  2  1  0
  2  3  1  0
  2  4  1  0
  4  5  1  0
  5  6  1  0
  6  7  1  0
  7  8  1  0
  8  9  2  0
  8 10  1  0
 10 11  1  0
 11 12  1  0
 12 13  2  0
 13 14  1  0
 14 15  2  0
  4 16  1  0
 16 17  1  0
 17 18  2  0
 17 19  1  0
 19 20  1  0
 20 21  1  0
 21 22  1  0
 22 23  1  0
 23 24  1  0
 15 11  1  0
 24 20  1  0
  1 25  1  0
  1 26  1  0
  1 27  1  0
  2 28  1  0
  3 29  1  0
  3 30  1  0
  3 31  1  0
  4 32  1  0
  5 33  1  0
  5 34  1  0
  6 35  1  0
  6 36  1  0
  7 37  1  0
 10 38  1  0
 10 39  1  0
 12 40  1  0
 13 41  1  0
 15 42  1  0
 16 43  1  0
 19 44  1  0
 19 45  1  0
 21 46  1  0
 21 47  1  0
 22 48  1  0
 22 49  1  0
 23 50  1  0
 23 51  1  0
 24 52  1  0
 24 53  1  0
M  END
>  <Energy>  (72) 
197.10939847219393

>  <compound_id>  (72) 
12875

>  <target_id>  (72) 
1

>  <reference_id>  (72) 
3

>  <inspiration_ids>  (72) 
[63, 3]

>  <energy_score>  (72) 
106.51392268489644

>  <distance_score>  (72) 
13.440157296695467

>  <path>  (72) 
/opt/xchem-fragalysis-2/maxwin/BulkDock/SCRATCH/511016/C12875-P3/C12875-P3.minimised.mol

>  <scratch_subdir>  (72) 
/opt/xchem-fragalysis-2/maxwin/BulkDock/SCRATCH/511016/C12875-P3

>  <fragmenstein_runtime>  (72) 
48.516746282577515

>  <fragmenstein_outcome>  (72) 
too moved

>  <fragmenstein_mode>  (72) 
expansion

>  <fragmenstein_error>  (72) 


$$$$
C12876-P63
     RDKit          3D

 56 57  0  0  0  0  0  0  0  0999 V2000
    5.4092  -10.6463   23.1289 C   0  0  0  0  0  0  0  0  0  0  0  0
    3.4252  -10.6419   22.9451 C   0  0  0  0  0  0  0  0  0  0  0  0
    2.4314   -9.5740   21.8561 C   0  0  0  0  0  0  0  0  0  0  0  0
    3.7057  -11.0129   22.0480 N   0  0  0  0  0  0  0  0  0  0  0  0
    3.5094  -12.3327   22.1075 C   0  0  0  0  0  0  0  0  0  0  0  0
    2.8077  -12.1481   23.1868 N   0  0  0  0  0  0  0  0  0  0  0  0
    2.7030  -13.2966   24.1768 C   0  0  0  0  0  0  0  0  0  0  0  0
    2.1966  -14.7814   24.0205 C   0  0  0  0  0  0  0  0  0  0  0  0
    2.8740  -15.5694   23.4167 O   0  0  0  0  0  0  0  0  0  0  0  0
    0.9458  -14.9712   24.7711 N   0  0  0  0  0  0  0  0  0  0  0  0
    0.2023  -16.1787   25.0929 C   0  0  0  0  0  0  0  0  0  0  0  0
   -1.2388  -16.0779   25.6945 C   0  0  0  0  0  0  0  0  0  0  0  0
   -1.6758  -14.8013   26.4542 C   0  0  0  0  0  0  0  0  0  0  0  0
   -3.1249  -14.8627   26.7608 N   0  0  0  0  0  0  0  0  0  0  0  0
   -3.8173  -15.0760   27.9973 C   0  0  0  0  0  0  0  0  0  0  0  0
   -3.4041  -15.1819   29.1171 O   0  0  0  0  0  0  0  0  0  0  0  0
   -5.3573  -15.2192   27.8017 C   0  0  0  0  0  0  0  0  0  0  0  0
   -5.9074  -14.6873   26.5221 N   0  0  0  0  0  0  0  0  0  0  0  0
   -7.3486  -15.0765   26.3723 C   0  0  0  0  0  0  0  0  0  0  0  0
   -8.2219  -13.8404   26.4581 C   0  0  0  0  0  0  0  0  0  0  0  0
   -7.3203  -12.8362   27.1214 C   0  0  0  0  0  0  0  0  0  0  0  0
   -5.9534  -13.2096   26.5720 C   0  0  0  0  0  0  0  0  0  0  0  0
   -0.7149  -14.3061   27.5754 C   0  0  0  0  0  0  0  0  0  0  0  0
   -0.3129  -15.3335   28.6284 C   0  0  0  0  0  0  0  0  0  0  0  0
   -1.1742  -12.9947   28.2216 C   0  0  0  0  0  0  0  0  0  0  0  0
    5.8578  -11.4119   23.8199 H   0  0  0  0  0  0  0  0  0  0  0  0
    5.9298  -10.8744   22.1925 H   0  0  0  0  0  0  0  0  0  0  0  0
    5.6894  -10.0226   23.9675 H   0  0  0  0  0  0  0  0  0  0  0  0
    2.5426   -8.5878   22.3657 H   0  0  0  0  0  0  0  0  0  0  0  0
    3.7202  -13.0759   21.3780 H   0  0  0  0  0  0  0  0  0  0  0  0
    3.6928  -13.4927   24.5574 H   0  0  0  0  0  0  0  0  0  0  0  0
    2.0283  -12.8917   24.9032 H   0  0  0  0  0  0  0  0  0  0  0  0
    0.6046  -14.0643   25.0853 H   0  0  0  0  0  0  0  0  0  0  0  0
    0.1855  -16.8063   24.1946 H   0  0  0  0  0  0  0  0  0  0  0  0
    0.8320  -16.7121   25.8150 H   0  0  0  0  0  0  0  0  0  0  0  0
   -1.4117  -16.9616   26.3216 H   0  0  0  0  0  0  0  0  0  0  0  0
   -1.9296  -16.1946   24.8470 H   0  0  0  0  0  0  0  0  0  0  0  0
   -1.6462  -13.9981   25.7174 H   0  0  0  0  0  0  0  0  0  0  0  0
   -3.8096  -14.7405   26.0142 H   0  0  0  0  0  0  0  0  0  0  0  0
   -5.5560  -16.2930   27.8730 H   0  0  0  0  0  0  0  0  0  0  0  0
   -5.8246  -14.7193   28.6534 H   0  0  0  0  0  0  0  0  0  0  0  0
   -7.4971  -15.5090   25.3799 H   0  0  0  0  0  0  0  0  0  0  0  0
   -7.6663  -15.7937   27.1355 H   0  0  0  0  0  0  0  0  0  0  0  0
   -8.4883  -13.4952   25.4516 H   0  0  0  0  0  0  0  0  0  0  0  0
   -9.1484  -14.0040   27.0136 H   0  0  0  0  0  0  0  0  0  0  0  0
   -7.3498  -12.9514   28.2110 H   0  0  0  0  0  0  0  0  0  0  0  0
   -7.5979  -11.8064   26.8785 H   0  0  0  0  0  0  0  0  0  0  0  0
   -5.8545  -12.8331   25.5458 H   0  0  0  0  0  0  0  0  0  0  0  0
   -5.1409  -12.7586   27.1520 H   0  0  0  0  0  0  0  0  0  0  0  0
    0.2282  -14.0474   27.0817 H   0  0  0  0  0  0  0  0  0  0  0  0
    0.0420  -16.2608   28.1709 H   0  0  0  0  0  0  0  0  0  0  0  0
   -1.1213  -15.5711   29.3178 H   0  0  0  0  0  0  0  0  0  0  0  0
    0.5116  -14.9429   29.2365 H   0  0  0  0  0  0  0  0  0  0  0  0
   -0.3655  -12.5640   28.8226 H   0  0  0  0  0  0  0  0  0  0  0  0
   -2.0322  -13.1271   28.8833 H   0  0  0  0  0  0  0  0  0  0  0  0
   -1.4442  -12.2583   27.4586 H   0  0  0  0  0  0  0  0  0  0  0  0
  1  2  1  0
  2  3  2  0
  3  4  1  0
  4  5  2  0
  5  6  1  0
  6  7  1  0
  7  8  1  0
  8  9  2  0
  8 10  1  0
 10 11  1  0
 11 12  1  0
 12 13  1  0
 13 14  1  0
 14 15  1  0
 15 16  2  0
 15 17  1  0
 17 18  1  0
 18 19  1  0
 19 20  1  0
 20 21  1  0
 21 22  1  0
 13 23  1  0
 23 24  1  0
 23 25  1  0
  6  2  1  0
 22 18  1  0
  1 26  1  0
  1 27  1  0
  1 28  1  0
  3 29  1  0
  5 30  1  0
  7 31  1  0
  7 32  1  0
 10 33  1  0
 11 34  1  0
 11 35  1  0
 12 36  1  0
 12 37  1  0
 13 38  1  0
 14 39  1  0
 17 40  1  0
 17 41  1  0
 19 42  1  0
 19 43  1  0
 20 44  1  0
 20 45  1  0
 21 46  1  0
 21 47  1  0
 22 48  1  0
 22 49  1  0
 23 50  1  0
 24 51  1  0
 24 52  1  0
 24 53  1  0
 25 54  1  0
 25 55  1  0
 25 56  1  0
M  END
>  <Energy>  (73) 
647.99607186985224

>  <compound_id>  (73) 
12876

>  <target_id>  (73) 
1

>  <reference_id>  (73) 
63

>  <inspiration_ids>  (73) 
[63, 3]

>  <energy_score>  (73) 
564.1984552689814

>  <distance_score>  (73) 
12.612344586207872

>  <path>  (73) 
/opt/xchem-fragalysis-2/maxwin/BulkDock/SCRATCH/511016/C12876-P63/C12876-P63.minimised.mol

>  <scratch_subdir>  (73) 
/opt/xchem-fragalysis-2/maxwin/BulkDock/SCRATCH/511016/C12876-P63

>  <fragmenstein_runtime>  (73) 
79.95541954040527

>  <fragmenstein_outcome>  (73) 
too moved

>  <fragmenstein_mode>  (73) 
expansion

>  <fragmenstein_error>  (73) 


$$$$
C12876-P3
     RDKit          3D

 56 57  0  0  0  0  0  0  0  0999 V2000
   -1.8389  -13.2785   28.8838 C   0  0  0  0  0  0  0  0  0  0  0  0
   -2.6591  -12.2032   29.5086 C   0  0  0  0  0  0  0  0  0  0  0  0
   -2.3329  -10.8570   29.5343 C   0  0  0  0  0  0  0  0  0  0  0  0
   -3.3653  -10.1087   29.9940 N   0  0  0  0  0  0  0  0  0  0  0  0
   -4.2854  -10.9795   30.3538 C   0  0  0  0  0  0  0  0  0  0  0  0
   -3.9024  -12.2937   30.1820 N   0  0  0  0  0  0  0  0  0  0  0  0
   -4.7036  -13.5361   30.6054 C   0  0  0  0  0  0  0  0  0  0  0  0
   -5.9890  -13.4886   31.6699 C   0  0  0  0  0  0  0  0  0  0  0  0
   -6.3224  -12.4296   32.1333 O   0  0  0  0  0  0  0  0  0  0  0  0
   -6.5537  -14.8654   31.8795 N   0  0  0  0  0  0  0  0  0  0  0  0
   -7.8511  -15.3658   32.7043 C   0  0  0  0  0  0  0  0  0  0  0  0
   -8.7248  -17.0396   32.4189 C   0  0  0  0  0  0  0  0  0  0  0  0
  -10.0585  -18.3439   32.0144 C   0  0  0  0  0  0  0  0  0  0  0  0
  -10.4990  -18.7118   30.6445 N   0  0  0  0  0  0  0  0  0  0  0  0
  -11.3484  -19.8147   30.1715 C   0  0  0  0  0  0  0  0  0  0  0  0
  -11.9616  -20.6458   30.7816 O   0  0  0  0  0  0  0  0  0  0  0  0
  -11.3723  -19.8976   28.6299 C   0  0  0  0  0  0  0  0  0  0  0  0
  -11.9304  -21.1590   28.1023 N   0  0  0  0  0  0  0  0  0  0  0  0
  -11.0863  -22.3306   28.2655 C   0  0  0  0  0  0  0  0  0  0  0  0
  -11.7675  -23.3300   27.3464 C   0  0  0  0  0  0  0  0  0  0  0  0
  -12.0999  -22.4912   26.1296 C   0  0  0  0  0  0  0  0  0  0  0  0
  -12.3317  -21.0995   26.6967 C   0  0  0  0  0  0  0  0  0  0  0  0
   -9.9195  -19.8855   32.7944 C   0  0  0  0  0  0  0  0  0  0  0  0
  -11.1734  -20.0549   33.6720 C   0  0  0  0  0  0  0  0  0  0  0  0
   -9.5666  -21.2513   32.1479 C   0  0  0  0  0  0  0  0  0  0  0  0
   -2.2116  -13.5001   27.8790 H   0  0  0  0  0  0  0  0  0  0  0  0
   -0.7875  -12.9838   28.8072 H   0  0  0  0  0  0  0  0  0  0  0  0
   -1.8891  -14.1952   29.4795 H   0  0  0  0  0  0  0  0  0  0  0  0
   -1.4131  -10.3909   29.2134 H   0  0  0  0  0  0  0  0  0  0  0  0
   -5.2461  -10.7129   30.7755 H   0  0  0  0  0  0  0  0  0  0  0  0
   -3.9490  -14.2017   31.0389 H   0  0  0  0  0  0  0  0  0  0  0  0
   -5.0721  -13.9426   29.6571 H   0  0  0  0  0  0  0  0  0  0  0  0
   -6.0790  -15.5194   31.2642 H   0  0  0  0  0  0  0  0  0  0  0  0
   -8.5790  -14.5486   32.7686 H   0  0  0  0  0  0  0  0  0  0  0  0
   -7.3645  -15.4554   33.6762 H   0  0  0  0  0  0  0  0  0  0  0  0
   -9.2919  -16.5039   31.7046 H   0  0  0  0  0  0  0  0  0  0  0  0
   -7.8376  -17.6704   32.4053 H   0  0  0  0  0  0  0  0  0  0  0  0
  -10.9432  -17.8750   32.4707 H   0  0  0  0  0  0  0  0  0  0  0  0
  -10.0757  -18.2623   29.8555 H   0  0  0  0  0  0  0  0  0  0  0  0
  -10.3701  -19.7278   28.2391 H   0  0  0  0  0  0  0  0  0  0  0  0
  -12.0518  -19.1000   28.3471 H   0  0  0  0  0  0  0  0  0  0  0  0
  -10.0725  -22.1188   27.9223 H   0  0  0  0  0  0  0  0  0  0  0  0
  -11.0533  -22.6960   29.2952 H   0  0  0  0  0  0  0  0  0  0  0  0
  -11.1427  -24.1877   27.0926 H   0  0  0  0  0  0  0  0  0  0  0  0
  -12.6884  -23.7091   27.8074 H   0  0  0  0  0  0  0  0  0  0  0  0
  -12.9732  -22.8771   25.5949 H   0  0  0  0  0  0  0  0  0  0  0  0
  -11.2494  -22.4833   25.4385 H   0  0  0  0  0  0  0  0  0  0  0  0
  -11.8168  -20.3378   26.1155 H   0  0  0  0  0  0  0  0  0  0  0  0
  -13.3888  -20.8673   26.6219 H   0  0  0  0  0  0  0  0  0  0  0  0
   -9.0345  -19.8739   33.4243 H   0  0  0  0  0  0  0  0  0  0  0  0
  -11.3417  -19.2020   34.3327 H   0  0  0  0  0  0  0  0  0  0  0  0
  -12.0635  -20.1218   33.0573 H   0  0  0  0  0  0  0  0  0  0  0  0
  -11.1043  -20.9456   34.3025 H   0  0  0  0  0  0  0  0  0  0  0  0
   -8.4792  -21.3725   32.0906 H   0  0  0  0  0  0  0  0  0  0  0  0
   -9.9495  -21.4687   31.1591 H   0  0  0  0  0  0  0  0  0  0  0  0
   -9.8986  -22.0754   32.7920 H   0  0  0  0  0  0  0  0  0  0  0  0
  1  2  1  0
  2  3  2  0
  3  4  1  0
  4  5  2  0
  5  6  1  0
  6  7  1  0
  7  8  1  0
  8  9  2  0
  8 10  1  0
 10 11  1  0
 11 12  1  0
 12 13  1  0
 13 14  1  0
 14 15  1  0
 15 16  2  0
 15 17  1  0
 17 18  1  0
 18 19  1  0
 19 20  1  0
 20 21  1  0
 21 22  1  0
 13 23  1  0
 23 24  1  0
 23 25  1  0
  6  2  1  0
 22 18  1  0
  1 26  1  0
  1 27  1  0
  1 28  1  0
  3 29  1  0
  5 30  1  0
  7 31  1  0
  7 32  1  0
 10 33  1  0
 11 34  1  0
 11 35  1  0
 12 36  1  0
 12 37  1  0
 13 38  1  0
 14 39  1  0
 17 40  1  0
 17 41  1  0
 19 42  1  0
 19 43  1  0
 20 44  1  0
 20 45  1  0
 21 46  1  0
 21 47  1  0
 22 48  1  0
 22 49  1  0
 23 50  1  0
 24 51  1  0
 24 52  1  0
 24 53  1  0
 25 54  1  0
 25 55  1  0
 25 56  1  0
M  END
>  <Energy>  (74) 
270.29520741773712

>  <compound_id>  (74) 
12876

>  <target_id>  (74) 
1

>  <reference_id>  (74) 
3

>  <inspiration_ids>  (74) 
[63, 3]

>  <energy_score>  (74) 
186.49759081687296

>  <distance_score>  (74) 
13.715771578759874

>  <path>  (74) 
/opt/xchem-fragalysis-2/maxwin/BulkDock/SCRATCH/511016/C12876-P3/C12876-P3.minimised.mol

>  <scratch_subdir>  (74) 
/opt/xchem-fragalysis-2/maxwin/BulkDock/SCRATCH/511016/C12876-P3

>  <fragmenstein_runtime>  (74) 
45.05164813995361

>  <fragmenstein_outcome>  (74) 
too moved

>  <fragmenstein_mode>  (74) 
expansion

>  <fragmenstein_error>  (74) 


$$$$
C12877-P63
     RDKit          3D

 56 57  0  0  0  0  0  0  0  0999 V2000
   -3.5986  -18.3572   22.8396 C   0  0  0  0  0  0  0  0  0  0  0  0
   -2.3356  -18.2142   23.6112 C   0  0  0  0  0  0  0  0  0  0  0  0
   -1.3170  -17.4354   23.2725 N   0  0  0  0  0  0  0  0  0  0  0  0
   -0.3779  -17.6030   24.2487 C   0  0  0  0  0  0  0  0  0  0  0  0
   -0.8403  -18.4823   25.2057 C   0  0  0  0  0  0  0  0  0  0  0  0
   -2.1059  -18.8991   24.8068 N   0  0  0  0  0  0  0  0  0  0  0  0
   -3.1579  -19.5166   25.7229 C   0  0  0  0  0  0  0  0  0  0  0  0
   -3.5240  -21.0901   25.7926 C   0  0  0  0  0  0  0  0  0  0  0  0
   -2.8730  -21.8910   25.1766 O   0  0  0  0  0  0  0  0  0  0  0  0
   -4.7022  -21.2889   26.7213 N   0  0  0  0  0  0  0  0  0  0  0  0
   -5.5370  -22.6247   27.1056 C   0  0  0  0  0  0  0  0  0  0  0  0
   -7.3439  -22.5499   27.5012 C   0  0  0  0  0  0  0  0  0  0  0  0
   -8.9897  -23.3839   28.0987 C   0  0  0  0  0  0  0  0  0  0  0  0
   -9.4469  -24.7039   27.9711 N   0  0  0  0  0  0  0  0  0  0  0  0
   -9.8480  -25.6620   28.9698 C   0  0  0  0  0  0  0  0  0  0  0  0
   -9.8172  -25.6062   30.1610 O   0  0  0  0  0  0  0  0  0  0  0  0
  -10.4230  -26.7932   28.2236 C   0  0  0  0  0  0  0  0  0  0  0  0
  -11.0873  -26.2794   27.0393 N   0  0  0  0  0  0  0  0  0  0  0  0
  -10.9043  -27.1651   25.9404 C   0  0  0  0  0  0  0  0  0  0  0  0
  -11.7548  -26.4418   24.9757 C   0  0  0  0  0  0  0  0  0  0  0  0
  -12.9701  -25.9307   25.6996 C   0  0  0  0  0  0  0  0  0  0  0  0
  -12.5210  -26.0631   27.1228 C   0  0  0  0  0  0  0  0  0  0  0  0
  -10.4242  -22.6124   28.3543 C   0  0  0  0  0  0  0  0  0  0  0  0
  -11.3285  -23.0174   29.5706 C   0  0  0  0  0  0  0  0  0  0  0  0
  -11.3702  -22.8350   27.1830 C   0  0  0  0  0  0  0  0  0  0  0  0
   -3.4700  -17.9733   21.8227 H   0  0  0  0  0  0  0  0  0  0  0  0
   -4.4045  -17.7922   23.3176 H   0  0  0  0  0  0  0  0  0  0  0  0
   -3.8985  -19.4074   22.7687 H   0  0  0  0  0  0  0  0  0  0  0  0
    0.5669  -17.0751   24.2246 H   0  0  0  0  0  0  0  0  0  0  0  0
   -0.4028  -18.8291   26.1309 H   0  0  0  0  0  0  0  0  0  0  0  0
   -4.0780  -18.9646   25.5028 H   0  0  0  0  0  0  0  0  0  0  0  0
   -2.8172  -19.2314   26.7229 H   0  0  0  0  0  0  0  0  0  0  0  0
   -5.0604  -20.3857   27.0035 H   0  0  0  0  0  0  0  0  0  0  0  0
   -4.9383  -23.1180   27.8500 H   0  0  0  0  0  0  0  0  0  0  0  0
   -5.4425  -23.1530   26.1538 H   0  0  0  0  0  0  0  0  0  0  0  0
   -7.4687  -22.8822   26.4962 H   0  0  0  0  0  0  0  0  0  0  0  0
   -7.5030  -21.4941   27.6346 H   0  0  0  0  0  0  0  0  0  0  0  0
   -8.7599  -23.6954   29.0634 H   0  0  0  0  0  0  0  0  0  0  0  0
   -9.6965  -25.0585   27.0531 H   0  0  0  0  0  0  0  0  0  0  0  0
   -9.4901  -27.2546   27.9244 H   0  0  0  0  0  0  0  0  0  0  0  0
  -11.0229  -27.4494   28.8418 H   0  0  0  0  0  0  0  0  0  0  0  0
  -11.2375  -28.1384   26.2156 H   0  0  0  0  0  0  0  0  0  0  0  0
   -9.8862  -27.2802   25.5936 H   0  0  0  0  0  0  0  0  0  0  0  0
  -11.1550  -25.5793   24.6756 H   0  0  0  0  0  0  0  0  0  0  0  0
  -12.0110  -27.0891   24.1538 H   0  0  0  0  0  0  0  0  0  0  0  0
  -13.1989  -24.8942   25.4315 H   0  0  0  0  0  0  0  0  0  0  0  0
  -13.8594  -26.5361   25.4998 H   0  0  0  0  0  0  0  0  0  0  0  0
  -13.0348  -26.9354   27.5379 H   0  0  0  0  0  0  0  0  0  0  0  0
  -12.7613  -25.1435   27.6431 H   0  0  0  0  0  0  0  0  0  0  0  0
  -10.2259  -21.5582   28.4981 H   0  0  0  0  0  0  0  0  0  0  0  0
  -12.1307  -22.2797   29.6702 H   0  0  0  0  0  0  0  0  0  0  0  0
  -10.8718  -23.0666   30.5585 H   0  0  0  0  0  0  0  0  0  0  0  0
  -11.8084  -23.9823   29.4062 H   0  0  0  0  0  0  0  0  0  0  0  0
  -12.3743  -23.1254   27.4844 H   0  0  0  0  0  0  0  0  0  0  0  0
  -11.4454  -21.8782   26.6917 H   0  0  0  0  0  0  0  0  0  0  0  0
  -11.0451  -23.5691   26.4450 H   0  0  0  0  0  0  0  0  0  0  0  0
  1  2  1  0
  2  3  2  0
  3  4  1  0
  4  5  2  0
  5  6  1  0
  6  7  1  0
  7  8  1  0
  8  9  2  0
  8 10  1  0
 10 11  1  0
 11 12  1  0
 12 13  1  0
 13 14  1  0
 14 15  1  0
 15 16  2  0
 15 17  1  0
 17 18  1  0
 18 19  1  0
 19 20  1  0
 20 21  1  0
 21 22  1  0
 13 23  1  0
 23 24  1  0
 23 25  1  0
  6  2  1  0
 22 18  1  0
  1 26  1  0
  1 27  1  0
  1 28  1  0
  4 29  1  0
  5 30  1  0
  7 31  1  0
  7 32  1  0
 10 33  1  0
 11 34  1  0
 11 35  1  0
 12 36  1  0
 12 37  1  0
 13 38  1  0
 14 39  1  0
 17 40  1  0
 17 41  1  0
 19 42  1  0
 19 43  1  0
 20 44  1  0
 20 45  1  0
 21 46  1  0
 21 47  1  0
 22 48  1  0
 22 49  1  0
 23 50  1  0
 24 51  1  0
 24 52  1  0
 24 53  1  0
 25 54  1  0
 25 55  1  0
 25 56  1  0
M  END
>  <Energy>  (75) 
248.99878950702524

>  <compound_id>  (75) 
12877

>  <target_id>  (75) 
1

>  <reference_id>  (75) 
63

>  <inspiration_ids>  (75) 
[63, 3]

>  <energy_score>  (75) 
171.85341986823676

>  <distance_score>  (75) 
13.225108861261946

>  <path>  (75) 
/opt/xchem-fragalysis-2/maxwin/BulkDock/SCRATCH/511016/C12877-P63/C12877-P63.minimised.mol

>  <scratch_subdir>  (75) 
/opt/xchem-fragalysis-2/maxwin/BulkDock/SCRATCH/511016/C12877-P63

>  <fragmenstein_runtime>  (75) 
59.622758626937866

>  <fragmenstein_outcome>  (75) 
too moved

>  <fragmenstein_mode>  (75) 
expansion

>  <fragmenstein_error>  (75) 


$$$$
C12877-P3
     RDKit          3D

 56 57  0  0  0  0  0  0  0  0999 V2000
   -2.0479  -17.3287   31.5202 C   0  0  0  0  0  0  0  0  0  0  0  0
   -0.7246  -17.9861   31.3741 C   0  0  0  0  0  0  0  0  0  0  0  0
    0.2419  -17.5476   30.5777 N   0  0  0  0  0  0  0  0  0  0  0  0
    1.2795  -18.4145   30.7453 C   0  0  0  0  0  0  0  0  0  0  0  0
    0.9468  -19.3875   31.6661 C   0  0  0  0  0  0  0  0  0  0  0  0
   -0.3551  -19.1435   32.0790 N   0  0  0  0  0  0  0  0  0  0  0  0
   -1.0666  -19.7792   33.2977 C   0  0  0  0  0  0  0  0  0  0  0  0
   -1.5396  -21.3367   33.2910 C   0  0  0  0  0  0  0  0  0  0  0  0
   -0.8632  -22.0798   32.6205 O   0  0  0  0  0  0  0  0  0  0  0  0
   -2.8411  -21.6012   34.0632 N   0  0  0  0  0  0  0  0  0  0  0  0
   -3.7778  -22.9235   34.1398 C   0  0  0  0  0  0  0  0  0  0  0  0
   -5.6731  -23.1474   33.9794 C   0  0  0  0  0  0  0  0  0  0  0  0
   -7.1597  -22.5506   33.1287 C   0  0  0  0  0  0  0  0  0  0  0  0
   -8.0643  -22.9152   31.9864 N   0  0  0  0  0  0  0  0  0  0  0  0
   -9.1864  -23.8902   31.9029 C   0  0  0  0  0  0  0  0  0  0  0  0
   -9.5899  -24.6901   32.7022 O   0  0  0  0  0  0  0  0  0  0  0  0
   -9.9160  -23.6431   30.5625 C   0  0  0  0  0  0  0  0  0  0  0  0
  -10.7929  -24.5822   29.8480 N   0  0  0  0  0  0  0  0  0  0  0  0
  -11.6560  -25.5244   30.5257 C   0  0  0  0  0  0  0  0  0  0  0  0
  -12.8975  -25.6662   29.6376 C   0  0  0  0  0  0  0  0  0  0  0  0
  -12.5460  -24.9501   28.3486 C   0  0  0  0  0  0  0  0  0  0  0  0
  -11.5833  -23.8862   28.8191 C   0  0  0  0  0  0  0  0  0  0  0  0
   -8.2599  -21.7560   33.9897 C   0  0  0  0  0  0  0  0  0  0  0  0
   -9.5756  -22.3667   34.3750 C   0  0  0  0  0  0  0  0  0  0  0  0
   -8.7958  -20.5767   33.1436 C   0  0  0  0  0  0  0  0  0  0  0  0
   -2.8547  -18.0656   31.5086 H   0  0  0  0  0  0  0  0  0  0  0  0
   -2.2213  -16.6304   30.6954 H   0  0  0  0  0  0  0  0  0  0  0  0
   -2.0877  -16.7641   32.4558 H   0  0  0  0  0  0  0  0  0  0  0  0
    2.2120  -18.2968   30.2099 H   0  0  0  0  0  0  0  0  0  0  0  0
    1.5076  -20.2211   32.0654 H   0  0  0  0  0  0  0  0  0  0  0  0
   -0.3313  -19.6720   34.1042 H   0  0  0  0  0  0  0  0  0  0  0  0
   -1.9087  -19.1235   33.5103 H   0  0  0  0  0  0  0  0  0  0  0  0
   -3.0931  -20.7741   34.5862 H   0  0  0  0  0  0  0  0  0  0  0  0
   -3.2644  -23.7206   33.5910 H   0  0  0  0  0  0  0  0  0  0  0  0
   -3.6017  -23.1764   35.1917 H   0  0  0  0  0  0  0  0  0  0  0  0
   -5.8902  -22.7594   34.9739 H   0  0  0  0  0  0  0  0  0  0  0  0
   -5.7429  -24.2244   33.8222 H   0  0  0  0  0  0  0  0  0  0  0  0
   -6.6332  -21.7499   32.6285 H   0  0  0  0  0  0  0  0  0  0  0  0
   -8.0607  -22.3418   31.1579 H   0  0  0  0  0  0  0  0  0  0  0  0
   -9.2131  -23.2215   29.8629 H   0  0  0  0  0  0  0  0  0  0  0  0
  -10.5563  -22.7891   30.8390 H   0  0  0  0  0  0  0  0  0  0  0  0
  -11.9266  -25.2553   31.5436 H   0  0  0  0  0  0  0  0  0  0  0  0
  -11.1771  -26.5014   30.5626 H   0  0  0  0  0  0  0  0  0  0  0  0
  -13.1595  -26.7138   29.4577 H   0  0  0  0  0  0  0  0  0  0  0  0
  -13.7608  -25.1837   30.1076 H   0  0  0  0  0  0  0  0  0  0  0  0
  -12.0492  -25.6408   27.6563 H   0  0  0  0  0  0  0  0  0  0  0  0
  -13.4261  -24.5344   27.8498 H   0  0  0  0  0  0  0  0  0  0  0  0
  -12.1306  -23.0429   29.2463 H   0  0  0  0  0  0  0  0  0  0  0  0
  -10.9794  -23.5045   27.9918 H   0  0  0  0  0  0  0  0  0  0  0  0
   -7.8293  -21.4600   34.9461 H   0  0  0  0  0  0  0  0  0  0  0  0
  -10.0366  -21.7642   35.1664 H   0  0  0  0  0  0  0  0  0  0  0  0
   -9.4654  -23.3587   34.7601 H   0  0  0  0  0  0  0  0  0  0  0  0
  -10.3053  -22.3821   33.5603 H   0  0  0  0  0  0  0  0  0  0  0  0
   -8.0489  -19.7940   33.0932 H   0  0  0  0  0  0  0  0  0  0  0  0
   -9.0920  -20.8645   32.1365 H   0  0  0  0  0  0  0  0  0  0  0  0
   -9.7342  -20.1684   33.5306 H   0  0  0  0  0  0  0  0  0  0  0  0
  1  2  1  0
  2  3  2  0
  3  4  1  0
  4  5  2  0
  5  6  1  0
  6  7  1  0
  7  8  1  0
  8  9  2  0
  8 10  1  0
 10 11  1  0
 11 12  1  0
 12 13  1  0
 13 14  1  0
 14 15  1  0
 15 16  2  0
 15 17  1  0
 17 18  1  0
 18 19  1  0
 19 20  1  0
 20 21  1  0
 21 22  1  0
 13 23  1  0
 23 24  1  0
 23 25  1  0
  6  2  1  0
 22 18  1  0
  1 26  1  0
  1 27  1  0
  1 28  1  0
  4 29  1  0
  5 30  1  0
  7 31  1  0
  7 32  1  0
 10 33  1  0
 11 34  1  0
 11 35  1  0
 12 36  1  0
 12 37  1  0
 13 38  1  0
 14 39  1  0
 17 40  1  0
 17 41  1  0
 19 42  1  0
 19 43  1  0
 20 44  1  0
 20 45  1  0
 21 46  1  0
 21 47  1  0
 22 48  1  0
 22 49  1  0
 23 50  1  0
 24 51  1  0
 24 52  1  0
 24 53  1  0
 25 54  1  0
 25 55  1  0
 25 56  1  0
M  END
>  <Energy>  (76) 
244.17128556976928

>  <compound_id>  (76) 
12877

>  <target_id>  (76) 
1

>  <reference_id>  (76) 
3

>  <inspiration_ids>  (76) 
[63, 3]

>  <energy_score>  (76) 
167.02591593098384

>  <distance_score>  (76) 
14.562156405292054

>  <path>  (76) 
/opt/xchem-fragalysis-2/maxwin/BulkDock/SCRATCH/511016/C12877-P3/C12877-P3.minimised.mol

>  <scratch_subdir>  (76) 
/opt/xchem-fragalysis-2/maxwin/BulkDock/SCRATCH/511016/C12877-P3

>  <fragmenstein_runtime>  (76) 
39.25076675415039

>  <fragmenstein_outcome>  (76) 
too moved

>  <fragmenstein_mode>  (76) 
expansion

>  <fragmenstein_error>  (76) 


$$$$
C12880-P63
     RDKit          3D

 42 44  0  0  0  0  0  0  0  0999 V2000
   -1.5862  -16.7970   28.9379 O   0  0  0  0  0  0  0  0  0  0  0  0
   -1.1701  -17.4874   29.8470 C   0  0  0  0  0  0  0  0  0  0  0  0
    0.6841  -17.5848   29.7688 C   0  0  0  0  0  0  0  0  0  0  0  0
    1.6341  -16.8336   28.3321 C   0  0  0  0  0  0  0  0  0  0  0  0
    3.2783  -15.9541   27.7358 C   0  0  0  0  0  0  0  0  0  0  0  0
    4.0820  -14.4445   27.0586 N   0  0  0  0  0  0  0  0  0  0  0  0
    4.9940  -13.2345   27.7112 C   0  0  0  0  0  0  0  0  0  0  0  0
    5.9220  -12.7414   26.8017 C   0  0  0  0  0  0  0  0  0  0  0  0
    5.7223  -13.4636   25.6788 N   0  0  0  0  0  0  0  0  0  0  0  0
    4.6482  -14.3111   25.7484 C   0  0  0  0  0  0  0  0  0  0  0  0
   -1.9625  -18.1919   31.0529 N   0  0  0  0  0  0  0  0  0  0  0  0
   -3.6534  -18.0992   31.5151 C   0  0  0  0  0  0  0  0  0  0  0  0
   -4.8740  -18.9695   32.5259 C   0  0  0  0  0  0  0  0  0  0  0  0
   -5.5747  -18.3961   33.5133 N   0  0  0  0  0  0  0  0  0  0  0  0
   -6.7557  -19.1690   33.9154 N   0  0  0  0  0  0  0  0  0  0  0  0
   -6.8230  -20.4205   33.3640 C   0  0  0  0  0  0  0  0  0  0  0  0
   -8.1416  -21.2806   33.0084 N   0  0  0  0  0  0  0  0  0  0  0  0
   -8.3548  -22.7809   33.2512 C   0  0  0  0  0  0  0  0  0  0  0  0
   -9.7563  -23.3210   32.6875 C   0  0  0  0  0  0  0  0  0  0  0  0
  -10.6538  -22.1394   32.3482 C   0  0  0  0  0  0  0  0  0  0  0  0
   -9.6970  -20.8742   32.2030 C   0  0  0  0  0  0  0  0  0  0  0  0
   -5.5229  -20.3349   32.3134 O   0  0  0  0  0  0  0  0  0  0  0  0
    1.0477  -17.0950   30.6766 H   0  0  0  0  0  0  0  0  0  0  0  0
    0.9401  -18.6487   29.7737 H   0  0  0  0  0  0  0  0  0  0  0  0
    1.0498  -15.9488   28.4596 H   0  0  0  0  0  0  0  0  0  0  0  0
    1.3759  -17.5108   27.5275 H   0  0  0  0  0  0  0  0  0  0  0  0
    4.0760  -16.4171   28.2449 H   0  0  0  0  0  0  0  0  0  0  0  0
    2.7013  -15.1116   28.0674 H   0  0  0  0  0  0  0  0  0  0  0  0
    4.9740  -12.9537   28.7430 H   0  0  0  0  0  0  0  0  0  0  0  0
    6.7002  -12.0012   26.9234 H   0  0  0  0  0  0  0  0  0  0  0  0
    4.3852  -14.9268   24.9105 H   0  0  0  0  0  0  0  0  0  0  0  0
   -1.3016  -18.6262   31.6825 H   0  0  0  0  0  0  0  0  0  0  0  0
   -4.1825  -17.8015   30.6035 H   0  0  0  0  0  0  0  0  0  0  0  0
   -3.5918  -17.1748   32.1105 H   0  0  0  0  0  0  0  0  0  0  0  0
   -7.6373  -23.3408   32.6535 H   0  0  0  0  0  0  0  0  0  0  0  0
   -8.2248  -22.9717   34.2856 H   0  0  0  0  0  0  0  0  0  0  0  0
   -9.5818  -23.9407   31.7988 H   0  0  0  0  0  0  0  0  0  0  0  0
  -10.2480  -24.0443   33.3435 H   0  0  0  0  0  0  0  0  0  0  0  0
  -11.4259  -21.9782   33.1104 H   0  0  0  0  0  0  0  0  0  0  0  0
  -11.2093  -22.3183   31.4192 H   0  0  0  0  0  0  0  0  0  0  0  0
   -9.7833  -20.8089   31.1306 H   0  0  0  0  0  0  0  0  0  0  0  0
  -10.0950  -19.9629   32.6568 H   0  0  0  0  0  0  0  0  0  0  0  0
  1  2  2  0
  2  3  1  0
  3  4  1  0
  4  5  1  0
  5  6  1  0
  6  7  1  0
  7  8  2  0
  8  9  1  0
  9 10  2  0
  2 11  1  0
 11 12  1  0
 12 13  1  0
 13 14  2  0
 14 15  1  0
 15 16  2  0
 16 17  1  0
 17 18  1  0
 18 19  1  0
 19 20  1  0
 20 21  1  0
 16 22  1  0
 10  6  1  0
 22 13  1  0
 21 17  1  0
  3 23  1  0
  3 24  1  0
  4 25  1  0
  4 26  1  0
  5 27  1  0
  5 28  1  0
  7 29  1  0
  8 30  1  0
 10 31  1  0
 11 32  1  0
 12 33  1  0
 12 34  1  0
 18 35  1  0
 18 36  1  0
 19 37  1  0
 19 38  1  0
 20 39  1  0
 20 40  1  0
 21 41  1  0
 21 42  1  0
M  END
>  <Energy>  (77) 
496.59394506600205

>  <compound_id>  (77) 
12880

>  <target_id>  (77) 
1

>  <reference_id>  (77) 
63

>  <inspiration_ids>  (77) 
[63, 3]

>  <energy_score>  (77) 
483.78922286126124

>  <distance_score>  (77) 
11.618840587053269

>  <path>  (77) 
/opt/xchem-fragalysis-2/maxwin/BulkDock/SCRATCH/511016/C12880-P63/C12880-P63.minimised.mol

>  <scratch_subdir>  (77) 
/opt/xchem-fragalysis-2/maxwin/BulkDock/SCRATCH/511016/C12880-P63

>  <fragmenstein_runtime>  (77) 
47.4406521320343

>  <fragmenstein_outcome>  (77) 
too moved

>  <fragmenstein_mode>  (77) 
expansion

>  <fragmenstein_error>  (77) 


$$$$
C12880-P3
     RDKit          3D

 42 44  0  0  0  0  0  0  0  0999 V2000
   -2.8989  -15.1153   25.1569 O   0  0  0  0  0  0  0  0  0  0  0  0
   -2.1867  -16.0196   25.5510 C   0  0  0  0  0  0  0  0  0  0  0  0
   -0.3431  -15.5118   25.4472 C   0  0  0  0  0  0  0  0  0  0  0  0
    1.1791  -14.1530   25.7500 C   0  0  0  0  0  0  0  0  0  0  0  0
    2.8965  -13.1654   25.4369 C   0  0  0  0  0  0  0  0  0  0  0  0
    3.4761  -11.7018   24.4628 N   0  0  0  0  0  0  0  0  0  0  0  0
    3.9824  -11.6975   23.0642 C   0  0  0  0  0  0  0  0  0  0  0  0
    4.9416  -10.5277   22.8450 C   0  0  0  0  0  0  0  0  0  0  0  0
    5.1237   -9.7440   23.8864 N   0  0  0  0  0  0  0  0  0  0  0  0
    4.3554  -10.3169   24.7817 C   0  0  0  0  0  0  0  0  0  0  0  0
   -2.5920  -17.4952   26.0824 N   0  0  0  0  0  0  0  0  0  0  0  0
   -4.0663  -18.2398   26.1702 C   0  0  0  0  0  0  0  0  0  0  0  0
   -4.7363  -19.5795   27.0897 C   0  0  0  0  0  0  0  0  0  0  0  0
   -4.4823  -20.8473   27.3060 N   0  0  0  0  0  0  0  0  0  0  0  0
   -5.6346  -21.3745   28.0761 N   0  0  0  0  0  0  0  0  0  0  0  0
   -6.9292  -20.7504   27.8068 C   0  0  0  0  0  0  0  0  0  0  0  0
   -8.5232  -20.9935   28.4796 N   0  0  0  0  0  0  0  0  0  0  0  0
   -9.1352  -22.0319   29.7256 C   0  0  0  0  0  0  0  0  0  0  0  0
  -10.5579  -22.3986   29.2545 C   0  0  0  0  0  0  0  0  0  0  0  0
  -10.8991  -21.4324   28.1390 C   0  0  0  0  0  0  0  0  0  0  0  0
   -9.9241  -20.2746   28.3266 C   0  0  0  0  0  0  0  0  0  0  0  0
   -6.3073  -19.5261   27.6124 O   0  0  0  0  0  0  0  0  0  0  0  0
   -0.6834  -15.4403   24.4444 H   0  0  0  0  0  0  0  0  0  0  0  0
    0.1374  -16.3615   25.0365 H   0  0  0  0  0  0  0  0  0  0  0  0
    1.8022  -14.9663   25.4053 H   0  0  0  0  0  0  0  0  0  0  0  0
    1.0621  -13.9060   26.8035 H   0  0  0  0  0  0  0  0  0  0  0  0
    3.3104  -13.8818   24.7346 H   0  0  0  0  0  0  0  0  0  0  0  0
    3.6636  -13.3460   26.1734 H   0  0  0  0  0  0  0  0  0  0  0  0
    3.7618  -12.5227   22.4139 H   0  0  0  0  0  0  0  0  0  0  0  0
    5.5095  -10.2026   21.9758 H   0  0  0  0  0  0  0  0  0  0  0  0
    4.4754   -9.8739   25.7552 H   0  0  0  0  0  0  0  0  0  0  0  0
   -1.7710  -17.9691   26.4099 H   0  0  0  0  0  0  0  0  0  0  0  0
   -4.7762  -17.4170   26.3112 H   0  0  0  0  0  0  0  0  0  0  0  0
   -4.1536  -18.6080   25.1421 H   0  0  0  0  0  0  0  0  0  0  0  0
   -8.5312  -22.8765   30.0911 H   0  0  0  0  0  0  0  0  0  0  0  0
   -9.3095  -21.5292   30.6868 H   0  0  0  0  0  0  0  0  0  0  0  0
  -10.6524  -23.4309   28.9176 H   0  0  0  0  0  0  0  0  0  0  0  0
  -11.2569  -22.2821   30.0900 H   0  0  0  0  0  0  0  0  0  0  0  0
  -11.9389  -21.1000   28.1876 H   0  0  0  0  0  0  0  0  0  0  0  0
  -10.7485  -21.9204   27.1705 H   0  0  0  0  0  0  0  0  0  0  0  0
  -10.0729  -19.5166   27.5769 H   0  0  0  0  0  0  0  0  0  0  0  0
  -10.2363  -19.7498   29.2399 H   0  0  0  0  0  0  0  0  0  0  0  0
  1  2  2  0
  2  3  1  0
  3  4  1  0
  4  5  1  0
  5  6  1  0
  6  7  1  0
  7  8  2  0
  8  9  1  0
  9 10  2  0
  2 11  1  0
 11 12  1  0
 12 13  1  0
 13 14  2  0
 14 15  1  0
 15 16  2  0
 16 17  1  0
 17 18  1  0
 18 19  1  0
 19 20  1  0
 20 21  1  0
 16 22  1  0
 10  6  1  0
 22 13  1  0
 21 17  1  0
  3 23  1  0
  3 24  1  0
  4 25  1  0
  4 26  1  0
  5 27  1  0
  5 28  1  0
  7 29  1  0
  8 30  1  0
 10 31  1  0
 11 32  1  0
 12 33  1  0
 12 34  1  0
 18 35  1  0
 18 36  1  0
 19 37  1  0
 19 38  1  0
 20 39  1  0
 20 40  1  0
 21 41  1  0
 21 42  1  0
M  END
>  <Energy>  (78) 
657.22407567109633

>  <compound_id>  (78) 
12880

>  <target_id>  (78) 
1

>  <reference_id>  (78) 
3

>  <inspiration_ids>  (78) 
[63, 3]

>  <energy_score>  (78) 
644.4193534663639

>  <distance_score>  (78) 
10.173351089146038

>  <path>  (78) 
/opt/xchem-fragalysis-2/maxwin/BulkDock/SCRATCH/511016/C12880-P3/C12880-P3.minimised.mol

>  <scratch_subdir>  (78) 
/opt/xchem-fragalysis-2/maxwin/BulkDock/SCRATCH/511016/C12880-P3

>  <fragmenstein_runtime>  (78) 
30.263042449951172

>  <fragmenstein_outcome>  (78) 
too moved

>  <fragmenstein_mode>  (78) 
expansion

>  <fragmenstein_error>  (78) 


$$$$
C12888-P63
     RDKit          3D

 45 47  0  0  0  0  0  0  0  0999 V2000
  -10.3223  -20.6533   31.1306 O   0  0  0  0  0  0  0  0  0  0  0  0
  -11.2222  -20.7699   30.3312 C   0  0  0  0  0  0  0  0  0  0  0  0
  -11.9155  -22.1482   30.3955 C   0  0  0  0  0  0  0  0  0  0  0  0
  -11.8879  -23.0935   29.3409 N   0  0  0  0  0  0  0  0  0  0  0  0
  -11.1139  -24.3075   29.1785 C   0  0  0  0  0  0  0  0  0  0  0  0
  -10.2639  -24.7640   29.8444 O   0  0  0  0  0  0  0  0  0  0  0  0
  -11.6610  -24.7611   27.9290 N   0  0  0  0  0  0  0  0  0  0  0  0
  -11.3965  -26.0114   27.1441 C   0  0  0  0  0  0  0  0  0  0  0  0
  -11.9321  -25.8855   25.7459 C   0  0  0  0  0  0  0  0  0  0  0  0
  -11.5567  -24.4685   25.4984 C   0  0  0  0  0  0  0  0  0  0  0  0
  -10.9307  -24.1573   26.8107 C   0  0  0  0  0  0  0  0  0  0  0  0
  -11.8510  -19.7096   29.3320 N   0  0  0  0  0  0  0  0  0  0  0  0
  -11.3316  -17.8554   28.9170 C   0  0  0  0  0  0  0  0  0  0  0  0
  -10.3617  -16.7435   27.4542 C   0  0  0  0  0  0  0  0  0  0  0  0
  -10.6467  -14.9739   26.9520 C   0  0  0  0  0  0  0  0  0  0  0  0
   -9.1322  -14.5518   26.9614 C   0  0  0  0  0  0  0  0  0  0  0  0
   -8.4480  -13.7153   25.8066 N   0  0  0  0  0  0  0  0  0  0  0  0
   -8.2817  -14.0136   24.4756 C   0  0  0  0  0  0  0  0  0  0  0  0
   -7.5375  -12.9762   23.9354 C   0  0  0  0  0  0  0  0  0  0  0  0
   -7.2108  -12.0578   24.8981 N   0  0  0  0  0  0  0  0  0  0  0  0
   -7.7426  -12.5358   26.0103 C   0  0  0  0  0  0  0  0  0  0  0  0
   -8.7544  -16.0506   27.0285 C   0  0  0  0  0  0  0  0  0  0  0  0
  -11.4368  -22.6645   31.2413 H   0  0  0  0  0  0  0  0  0  0  0  0
  -12.9406  -22.0272   30.7429 H   0  0  0  0  0  0  0  0  0  0  0  0
  -12.4778  -22.9688   28.5349 H   0  0  0  0  0  0  0  0  0  0  0  0
  -10.3414  -26.3253   27.2140 H   0  0  0  0  0  0  0  0  0  0  0  0
  -11.9306  -26.8214   27.6512 H   0  0  0  0  0  0  0  0  0  0  0  0
  -13.0188  -26.0179   25.7122 H   0  0  0  0  0  0  0  0  0  0  0  0
  -11.4676  -26.6006   25.0648 H   0  0  0  0  0  0  0  0  0  0  0  0
  -10.8273  -24.3170   24.7028 H   0  0  0  0  0  0  0  0  0  0  0  0
  -12.4379  -23.8448   25.3134 H   0  0  0  0  0  0  0  0  0  0  0  0
  -11.0268  -23.0778   26.9618 H   0  0  0  0  0  0  0  0  0  0  0  0
   -9.8498  -24.3418   26.8814 H   0  0  0  0  0  0  0  0  0  0  0  0
  -12.5090  -20.1480   28.7662 H   0  0  0  0  0  0  0  0  0  0  0  0
  -12.3468  -17.9553   28.7243 H   0  0  0  0  0  0  0  0  0  0  0  0
  -11.7955  -17.2000   29.6633 H   0  0  0  0  0  0  0  0  0  0  0  0
  -10.1623  -17.3757   26.6264 H   0  0  0  0  0  0  0  0  0  0  0  0
  -11.2606  -14.4238   27.6754 H   0  0  0  0  0  0  0  0  0  0  0  0
  -11.0946  -14.8264   25.9596 H   0  0  0  0  0  0  0  0  0  0  0  0
   -8.8864  -13.9787   27.8669 H   0  0  0  0  0  0  0  0  0  0  0  0
   -8.6971  -14.9069   24.0319 H   0  0  0  0  0  0  0  0  0  0  0  0
   -7.2154  -12.8544   22.9091 H   0  0  0  0  0  0  0  0  0  0  0  0
   -7.6557  -12.0858   26.9910 H   0  0  0  0  0  0  0  0  0  0  0  0
   -8.5044  -16.2809   26.0024 H   0  0  0  0  0  0  0  0  0  0  0  0
   -7.9086  -16.3083   27.6686 H   0  0  0  0  0  0  0  0  0  0  0  0
  1  2  2  0
  2  3  1  0
  3  4  1  0
  4  5  1  0
  5  6  2  0
  5  7  1  0
  7  8  1  0
  8  9  1  0
  9 10  1  0
 10 11  1  0
  2 12  1  0
 12 13  1  0
 13 14  1  0
 14 15  1  0
 15 16  1  0
 16 17  1  0
 17 18  1  0
 18 19  2  0
 19 20  1  0
 20 21  2  0
 16 22  1  0
 11  7  1  0
 22 14  1  0
 21 17  1  0
  3 23  1  0
  3 24  1  0
  4 25  1  0
  8 26  1  0
  8 27  1  0
  9 28  1  0
  9 29  1  0
 10 30  1  0
 10 31  1  0
 11 32  1  0
 11 33  1  0
 12 34  1  0
 13 35  1  0
 13 36  1  0
 14 37  1  0
 15 38  1  0
 15 39  1  0
 16 40  1  0
 18 41  1  0
 19 42  1  0
 21 43  1  0
 22 44  1  0
 22 45  1  0
M  END
>  <Energy>  (79) 
345.29426979279555

>  <compound_id>  (79) 
12888

>  <target_id>  (79) 
1

>  <reference_id>  (79) 
63

>  <inspiration_ids>  (79) 
[63, 3]

>  <energy_score>  (79) 
355.99265704557513

>  <distance_score>  (79) 
14.184228657625061

>  <path>  (79) 
/opt/xchem-fragalysis-2/maxwin/BulkDock/SCRATCH/511016/C12888-P63/C12888-P63.minimised.mol

>  <scratch_subdir>  (79) 
/opt/xchem-fragalysis-2/maxwin/BulkDock/SCRATCH/511016/C12888-P63

>  <fragmenstein_runtime>  (79) 
69.3705382347107

>  <fragmenstein_outcome>  (79) 
too moved

>  <fragmenstein_mode>  (79) 
expansion

>  <fragmenstein_error>  (79) 


$$$$
C12888-P3
     RDKit          3D

 45 47  0  0  0  0  0  0  0  0999 V2000
   -1.8006  -23.9051   33.5165 O   0  0  0  0  0  0  0  0  0  0  0  0
   -2.3836  -22.8892   33.8054 C   0  0  0  0  0  0  0  0  0  0  0  0
   -3.9390  -23.1610   34.4541 C   0  0  0  0  0  0  0  0  0  0  0  0
   -5.5545  -23.1617   33.9186 N   0  0  0  0  0  0  0  0  0  0  0  0
   -6.2970  -22.2305   32.9528 C   0  0  0  0  0  0  0  0  0  0  0  0
   -5.8617  -21.2896   32.4795 O   0  0  0  0  0  0  0  0  0  0  0  0
   -7.5683  -22.8244   32.6916 N   0  0  0  0  0  0  0  0  0  0  0  0
   -8.6146  -22.4876   31.6937 C   0  0  0  0  0  0  0  0  0  0  0  0
   -9.9009  -23.1809   31.9233 C   0  0  0  0  0  0  0  0  0  0  0  0
   -9.9101  -22.9190   33.3792 C   0  0  0  0  0  0  0  0  0  0  0  0
   -8.5922  -22.2778   33.6163 C   0  0  0  0  0  0  0  0  0  0  0  0
   -1.9711  -21.4777   33.6777 N   0  0  0  0  0  0  0  0  0  0  0  0
   -0.7403  -20.8602   33.0588 C   0  0  0  0  0  0  0  0  0  0  0  0
   -0.9529  -19.6068   32.1260 C   0  0  0  0  0  0  0  0  0  0  0  0
   -0.8328  -19.6028   30.5270 C   0  0  0  0  0  0  0  0  0  0  0  0
    0.6651  -19.1283   30.6162 C   0  0  0  0  0  0  0  0  0  0  0  0
    1.2289  -18.0622   29.6169 N   0  0  0  0  0  0  0  0  0  0  0  0
    2.4883  -17.4919   29.6923 C   0  0  0  0  0  0  0  0  0  0  0  0
    2.6406  -16.7312   28.5464 C   0  0  0  0  0  0  0  0  0  0  0  0
    1.5517  -16.8787   27.7309 N   0  0  0  0  0  0  0  0  0  0  0  0
    0.7599  -17.7271   28.3681 C   0  0  0  0  0  0  0  0  0  0  0  0
    0.2802  -18.5886   32.0288 C   0  0  0  0  0  0  0  0  0  0  0  0
   -3.7731  -24.2452   34.5435 H   0  0  0  0  0  0  0  0  0  0  0  0
   -3.9441  -22.6809   35.4413 H   0  0  0  0  0  0  0  0  0  0  0  0
   -6.1317  -23.9433   34.1071 H   0  0  0  0  0  0  0  0  0  0  0  0
   -8.7431  -21.4110   31.5787 H   0  0  0  0  0  0  0  0  0  0  0  0
   -8.2099  -22.8120   30.7332 H   0  0  0  0  0  0  0  0  0  0  0  0
   -9.8483  -24.2502   31.6975 H   0  0  0  0  0  0  0  0  0  0  0  0
  -10.7327  -22.7328   31.3760 H   0  0  0  0  0  0  0  0  0  0  0  0
  -10.6954  -22.2288   33.6900 H   0  0  0  0  0  0  0  0  0  0  0  0
   -9.9340  -23.8737   33.8959 H   0  0  0  0  0  0  0  0  0  0  0  0
   -8.2748  -22.3217   34.6507 H   0  0  0  0  0  0  0  0  0  0  0  0
   -8.6606  -21.1773   33.5074 H   0  0  0  0  0  0  0  0  0  0  0  0
   -2.6777  -20.8876   34.0967 H   0  0  0  0  0  0  0  0  0  0  0  0
   -0.2058  -21.6483   32.5192 H   0  0  0  0  0  0  0  0  0  0  0  0
   -0.1290  -20.5602   33.9165 H   0  0  0  0  0  0  0  0  0  0  0  0
   -1.8523  -19.0804   32.4710 H   0  0  0  0  0  0  0  0  0  0  0  0
   -1.5076  -18.8778   30.0559 H   0  0  0  0  0  0  0  0  0  0  0  0
   -0.9825  -20.5771   30.0530 H   0  0  0  0  0  0  0  0  0  0  0  0
    1.3610  -19.9768   30.6659 H   0  0  0  0  0  0  0  0  0  0  0  0
    3.1339  -17.6622   30.5413 H   0  0  0  0  0  0  0  0  0  0  0  0
    3.4793  -16.1079   28.2640 H   0  0  0  0  0  0  0  0  0  0  0  0
   -0.1567  -18.1455   27.9782 H   0  0  0  0  0  0  0  0  0  0  0  0
   -0.0408  -17.5399   32.0322 H   0  0  0  0  0  0  0  0  0  0  0  0
    1.0536  -18.7089   32.7933 H   0  0  0  0  0  0  0  0  0  0  0  0
  1  2  2  0
  2  3  1  0
  3  4  1  0
  4  5  1  0
  5  6  2  0
  5  7  1  0
  7  8  1  0
  8  9  1  0
  9 10  1  0
 10 11  1  0
  2 12  1  0
 12 13  1  0
 13 14  1  0
 14 15  1  0
 15 16  1  0
 16 17  1  0
 17 18  1  0
 18 19  2  0
 19 20  1  0
 20 21  2  0
 16 22  1  0
 11  7  1  0
 22 14  1  0
 21 17  1  0
  3 23  1  0
  3 24  1  0
  4 25  1  0
  8 26  1  0
  8 27  1  0
  9 28  1  0
  9 29  1  0
 10 30  1  0
 10 31  1  0
 11 32  1  0
 11 33  1  0
 12 34  1  0
 13 35  1  0
 13 36  1  0
 14 37  1  0
 15 38  1  0
 15 39  1  0
 16 40  1  0
 18 41  1  0
 19 42  1  0
 21 43  1  0
 22 44  1  0
 22 45  1  0
M  END
>  <Energy>  (80) 
103.36061291977668

>  <compound_id>  (80) 
12888

>  <target_id>  (80) 
1

>  <reference_id>  (80) 
3

>  <inspiration_ids>  (80) 
[63, 3]

>  <energy_score>  (80) 
114.05900017256641

>  <distance_score>  (80) 
14.079497001724892

>  <path>  (80) 
/opt/xchem-fragalysis-2/maxwin/BulkDock/SCRATCH/511016/C12888-P3/C12888-P3.minimised.mol

>  <scratch_subdir>  (80) 
/opt/xchem-fragalysis-2/maxwin/BulkDock/SCRATCH/511016/C12888-P3

>  <fragmenstein_runtime>  (80) 
40.98119592666626

>  <fragmenstein_outcome>  (80) 
too moved

>  <fragmenstein_mode>  (80) 
expansion

>  <fragmenstein_error>  (80) 


$$$$
C12895-P63
     RDKit          3D

 56 57  0  0  0  0  0  0  0  0999 V2000
    0.2710   -7.3668   23.5670 C   0  0  0  0  0  0  0  0  0  0  0  0
   -0.1448   -8.3116   22.5235 C   0  0  0  0  0  0  0  0  0  0  0  0
   -1.1344   -9.3132   22.5215 C   0  0  0  0  0  0  0  0  0  0  0  0
   -0.2371  -10.5428   22.3685 N   0  0  0  0  0  0  0  0  0  0  0  0
   -0.1586  -12.4834   22.7356 C   0  0  0  0  0  0  0  0  0  0  0  0
    1.6875  -12.0067   23.5298 C   0  0  0  0  0  0  0  0  0  0  0  0
   -1.4659  -11.9328   21.2119 C   0  0  0  0  0  0  0  0  0  0  0  0
   -0.6706  -14.2120   23.9864 C   0  0  0  0  0  0  0  0  0  0  0  0
    0.0091  -15.1976   23.7226 O   0  0  0  0  0  0  0  0  0  0  0  0
   -2.1258  -14.3701   25.2628 N   0  0  0  0  0  0  0  0  0  0  0  0
   -1.6468  -14.0730   26.6153 C   0  0  0  0  0  0  0  0  0  0  0  0
   -2.8940  -15.9335   26.1965 C   0  0  0  0  0  0  0  0  0  0  0  0
   -4.7725  -16.6891   26.7814 C   0  0  0  0  0  0  0  0  0  0  0  0
   -6.3974  -16.7958   28.0077 N   0  0  0  0  0  0  0  0  0  0  0  0
   -6.0222  -15.3704   27.7308 C   0  0  0  0  0  0  0  0  0  0  0  0
   -8.0780  -17.7404   27.7812 C   0  0  0  0  0  0  0  0  0  0  0  0
   -8.9455  -17.0912   27.2374 O   0  0  0  0  0  0  0  0  0  0  0  0
   -8.8686  -19.5868   28.3984 C   0  0  0  0  0  0  0  0  0  0  0  0
   -9.9264  -21.2928   28.1270 N   0  0  0  0  0  0  0  0  0  0  0  0
   -9.6131  -22.9331   28.1515 C   0  0  0  0  0  0  0  0  0  0  0  0
  -10.9531  -23.4877   27.6934 C   0  0  0  0  0  0  0  0  0  0  0  0
  -11.7879  -22.9153   28.7982 C   0  0  0  0  0  0  0  0  0  0  0  0
  -11.1965  -21.5335   29.0851 C   0  0  0  0  0  0  0  0  0  0  0  0
    0.1798   -9.7547   21.2498 C   0  0  0  0  0  0  0  0  0  0  0  0
    0.7139   -8.6014   21.5606 N   0  0  0  0  0  0  0  0  0  0  0  0
    1.1767   -7.8075   23.8898 H   0  0  0  0  0  0  0  0  0  0  0  0
    0.5846   -6.3660   23.2614 H   0  0  0  0  0  0  0  0  0  0  0  0
   -0.4349   -7.2981   24.3997 H   0  0  0  0  0  0  0  0  0  0  0  0
   -2.1297   -9.2772   22.9451 H   0  0  0  0  0  0  0  0  0  0  0  0
    1.7257  -11.7068   24.5569 H   0  0  0  0  0  0  0  0  0  0  0  0
    2.5743  -11.8616   22.9215 H   0  0  0  0  0  0  0  0  0  0  0  0
    2.1171  -12.9898   23.9654 H   0  0  0  0  0  0  0  0  0  0  0  0
   -2.2584  -11.1985   21.4162 H   0  0  0  0  0  0  0  0  0  0  0  0
   -1.9804  -12.7912   20.7250 H   0  0  0  0  0  0  0  0  0  0  0  0
   -1.0567  -11.5594   20.2775 H   0  0  0  0  0  0  0  0  0  0  0  0
   -1.2052  -13.0733   26.5865 H   0  0  0  0  0  0  0  0  0  0  0  0
   -0.8284  -14.7422   26.8999 H   0  0  0  0  0  0  0  0  0  0  0  0
   -2.4597  -14.0159   27.3468 H   0  0  0  0  0  0  0  0  0  0  0  0
   -2.1750  -16.2937   26.9469 H   0  0  0  0  0  0  0  0  0  0  0  0
   -2.7547  -16.6224   25.3488 H   0  0  0  0  0  0  0  0  0  0  0  0
   -4.2077  -16.7451   27.7214 H   0  0  0  0  0  0  0  0  0  0  0  0
   -5.0971  -15.9655   26.0273 H   0  0  0  0  0  0  0  0  0  0  0  0
   -6.3542  -15.0007   26.7488 H   0  0  0  0  0  0  0  0  0  0  0  0
   -6.7490  -14.7803   28.2899 H   0  0  0  0  0  0  0  0  0  0  0  0
   -5.0766  -15.0103   28.1576 H   0  0  0  0  0  0  0  0  0  0  0  0
   -9.4523  -20.1952   29.5885 H   0  0  0  0  0  0  0  0  0  0  0  0
   -9.8839  -20.0509   29.1682 H   0  0  0  0  0  0  0  0  0  0  0  0
   -8.7547  -23.2705   27.5813 H   0  0  0  0  0  0  0  0  0  0  0  0
   -9.5029  -23.5980   29.0021 H   0  0  0  0  0  0  0  0  0  0  0  0
  -11.2843  -23.1375   26.7151 H   0  0  0  0  0  0  0  0  0  0  0  0
  -10.9761  -24.5824   27.6873 H   0  0  0  0  0  0  0  0  0  0  0  0
  -11.7044  -23.5365   29.6983 H   0  0  0  0  0  0  0  0  0  0  0  0
  -12.8263  -22.9133   28.5260 H   0  0  0  0  0  0  0  0  0  0  0  0
  -10.8977  -21.5242   30.1423 H   0  0  0  0  0  0  0  0  0  0  0  0
  -11.9554  -20.7718   29.0030 H   0  0  0  0  0  0  0  0  0  0  0  0
   -0.6313   -9.6356   20.5155 H   0  0  0  0  0  0  0  0  0  0  0  0
  1  2  1  0
  2  3  2  0
  3  4  1  0
  4  5  1  0
  5  6  1  0
  5  7  1  0
  5  8  1  0
  8  9  2  0
  8 10  1  0
 10 11  1  0
 10 12  1  0
 12 13  1  0
 13 14  1  0
 14 15  1  0
 14 16  1  0
 16 17  2  0
 16 18  1  0
 18 19  1  0
 19 20  1  0
 20 21  1  0
 21 22  1  0
 22 23  1  0
  4 24  1  0
 24 25  2  0
 25  2  1  0
 23 19  1  0
  1 26  1  0
  1 27  1  0
  1 28  1  0
  3 29  1  0
  6 30  1  0
  6 31  1  0
  6 32  1  0
  7 33  1  0
  7 34  1  0
  7 35  1  0
 11 36  1  0
 11 37  1  0
 11 38  1  0
 12 39  1  0
 12 40  1  0
 13 41  1  0
 13 42  1  0
 15 43  1  0
 15 44  1  0
 15 45  1  0
 18 46  1  0
 18 47  1  0
 20 48  1  0
 20 49  1  0
 21 50  1  0
 21 51  1  0
 22 52  1  0
 22 53  1  0
 23 54  1  0
 23 55  1  0
 24 56  1  0
M  END
>  <Energy>  (81) 
1918.608261707587

>  <compound_id>  (81) 
12895

>  <target_id>  (81) 
1

>  <reference_id>  (81) 
63

>  <inspiration_ids>  (81) 
[63, 3]

>  <energy_score>  (81) 
1810.1285750962993

>  <distance_score>  (81) 
11.14427990344223

>  <path>  (81) 
/opt/xchem-fragalysis-2/maxwin/BulkDock/SCRATCH/511016/C12895-P63/C12895-P63.minimised.mol

>  <scratch_subdir>  (81) 
/opt/xchem-fragalysis-2/maxwin/BulkDock/SCRATCH/511016/C12895-P63

>  <fragmenstein_runtime>  (81) 
62.33981513977051

>  <fragmenstein_outcome>  (81) 
too moved

>  <fragmenstein_mode>  (81) 
expansion

>  <fragmenstein_error>  (81) 


$$$$
C12895-P3
     RDKit          3D

 56 57  0  0  0  0  0  0  0  0999 V2000
    2.3592  -21.6734   29.0529 C   0  0  0  0  0  0  0  0  0  0  0  0
    1.4616  -22.1881   30.1603 C   0  0  0  0  0  0  0  0  0  0  0  0
    1.1453  -23.4789   30.6233 C   0  0  0  0  0  0  0  0  0  0  0  0
    0.2519  -23.3636   31.7100 N   0  0  0  0  0  0  0  0  0  0  0  0
   -0.2899  -24.4743   32.8489 C   0  0  0  0  0  0  0  0  0  0  0  0
    1.0515  -24.8185   33.5409 C   0  0  0  0  0  0  0  0  0  0  0  0
   -1.1846  -23.7383   33.8618 C   0  0  0  0  0  0  0  0  0  0  0  0
   -1.0326  -26.0457   32.4751 C   0  0  0  0  0  0  0  0  0  0  0  0
   -0.6191  -26.5355   31.4405 O   0  0  0  0  0  0  0  0  0  0  0  0
   -2.0273  -26.6420   33.5637 N   0  0  0  0  0  0  0  0  0  0  0  0
   -1.2689  -27.3580   34.6090 C   0  0  0  0  0  0  0  0  0  0  0  0
   -2.9551  -28.1514   33.5641 C   0  0  0  0  0  0  0  0  0  0  0  0
   -4.4194  -28.4408   34.5377 C   0  0  0  0  0  0  0  0  0  0  0  0
   -5.9439  -29.0263   33.9497 N   0  0  0  0  0  0  0  0  0  0  0  0
   -5.1270  -30.2182   33.6870 C   0  0  0  0  0  0  0  0  0  0  0  0
   -7.0607  -28.7852   34.9791 C   0  0  0  0  0  0  0  0  0  0  0  0
   -7.4570  -29.5152   35.8789 O   0  0  0  0  0  0  0  0  0  0  0  0
   -7.9669  -27.0351   35.0589 C   0  0  0  0  0  0  0  0  0  0  0  0
   -9.4963  -26.6123   34.0904 N   0  0  0  0  0  0  0  0  0  0  0  0
  -10.7258  -27.4115   33.6025 C   0  0  0  0  0  0  0  0  0  0  0  0
  -11.5365  -26.5513   32.5813 C   0  0  0  0  0  0  0  0  0  0  0  0
  -10.6333  -25.3988   32.1306 C   0  0  0  0  0  0  0  0  0  0  0  0
   -9.5327  -25.2953   33.2305 C   0  0  0  0  0  0  0  0  0  0  0  0
    0.1355  -21.9642   31.8326 C   0  0  0  0  0  0  0  0  0  0  0  0
    0.8048  -21.2681   30.9327 N   0  0  0  0  0  0  0  0  0  0  0  0
    2.7746  -22.5097   28.4828 H   0  0  0  0  0  0  0  0  0  0  0  0
    1.7852  -21.0349   28.3750 H   0  0  0  0  0  0  0  0  0  0  0  0
    3.1819  -21.0934   29.4811 H   0  0  0  0  0  0  0  0  0  0  0  0
    1.4702  -24.4580   30.2996 H   0  0  0  0  0  0  0  0  0  0  0  0
    1.6101  -23.9168   33.8190 H   0  0  0  0  0  0  0  0  0  0  0  0
    1.6874  -25.4148   32.8767 H   0  0  0  0  0  0  0  0  0  0  0  0
    0.9117  -25.3979   34.4545 H   0  0  0  0  0  0  0  0  0  0  0  0
   -2.1239  -23.4274   33.4052 H   0  0  0  0  0  0  0  0  0  0  0  0
   -0.6951  -22.8601   34.2941 H   0  0  0  0  0  0  0  0  0  0  0  0
   -1.4453  -24.3805   34.7087 H   0  0  0  0  0  0  0  0  0  0  0  0
   -0.6144  -26.6165   35.0736 H   0  0  0  0  0  0  0  0  0  0  0  0
   -1.8792  -27.7123   35.4498 H   0  0  0  0  0  0  0  0  0  0  0  0
   -0.5859  -28.1080   34.1894 H   0  0  0  0  0  0  0  0  0  0  0  0
   -2.3016  -29.0237   33.7421 H   0  0  0  0  0  0  0  0  0  0  0  0
   -3.1883  -28.3400   32.5250 H   0  0  0  0  0  0  0  0  0  0  0  0
   -4.1409  -28.9455   35.4700 H   0  0  0  0  0  0  0  0  0  0  0  0
   -4.6900  -27.4110   34.7070 H   0  0  0  0  0  0  0  0  0  0  0  0
   -4.7299  -30.7048   34.5869 H   0  0  0  0  0  0  0  0  0  0  0  0
   -5.8504  -30.9521   33.3061 H   0  0  0  0  0  0  0  0  0  0  0  0
   -4.4114  -30.0944   32.8709 H   0  0  0  0  0  0  0  0  0  0  0  0
   -7.2478  -26.4423   34.5138 H   0  0  0  0  0  0  0  0  0  0  0  0
   -8.0081  -26.4980   35.9598 H   0  0  0  0  0  0  0  0  0  0  0  0
  -10.4474  -28.3633   33.1290 H   0  0  0  0  0  0  0  0  0  0  0  0
  -11.4006  -27.6809   34.4227 H   0  0  0  0  0  0  0  0  0  0  0  0
  -11.8499  -27.1593   31.7232 H   0  0  0  0  0  0  0  0  0  0  0  0
  -12.4597  -26.2198   33.0421 H   0  0  0  0  0  0  0  0  0  0  0  0
  -10.2267  -25.5818   31.1328 H   0  0  0  0  0  0  0  0  0  0  0  0
  -11.1149  -24.4652   31.8502 H   0  0  0  0  0  0  0  0  0  0  0  0
   -8.5840  -25.0496   32.7437 H   0  0  0  0  0  0  0  0  0  0  0  0
   -9.7986  -24.4370   33.8490 H   0  0  0  0  0  0  0  0  0  0  0  0
   -0.4680  -21.5141   32.6077 H   0  0  0  0  0  0  0  0  0  0  0  0
  1  2  1  0
  2  3  2  0
  3  4  1  0
  4  5  1  0
  5  6  1  0
  5  7  1  0
  5  8  1  0
  8  9  2  0
  8 10  1  0
 10 11  1  0
 10 12  1  0
 12 13  1  0
 13 14  1  0
 14 15  1  0
 14 16  1  0
 16 17  2  0
 16 18  1  0
 18 19  1  0
 19 20  1  0
 20 21  1  0
 21 22  1  0
 22 23  1  0
  4 24  1  0
 24 25  2  0
 25  2  1  0
 23 19  1  0
  1 26  1  0
  1 27  1  0
  1 28  1  0
  3 29  1  0
  6 30  1  0
  6 31  1  0
  6 32  1  0
  7 33  1  0
  7 34  1  0
  7 35  1  0
 11 36  1  0
 11 37  1  0
 11 38  1  0
 12 39  1  0
 12 40  1  0
 13 41  1  0
 13 42  1  0
 15 43  1  0
 15 44  1  0
 15 45  1  0
 18 46  1  0
 18 47  1  0
 20 48  1  0
 20 49  1  0
 21 50  1  0
 21 51  1  0
 22 52  1  0
 22 53  1  0
 23 54  1  0
 23 55  1  0
 24 56  1  0
M  END
>  <Energy>  (82) 
462.45590379514414

>  <compound_id>  (82) 
12895

>  <target_id>  (82) 
1

>  <reference_id>  (82) 
3

>  <inspiration_ids>  (82) 
[63, 3]

>  <energy_score>  (82) 
353.97621718384227

>  <distance_score>  (82) 
17.14389580046529

>  <path>  (82) 
/opt/xchem-fragalysis-2/maxwin/BulkDock/SCRATCH/511016/C12895-P3/C12895-P3.minimised.mol

>  <scratch_subdir>  (82) 
/opt/xchem-fragalysis-2/maxwin/BulkDock/SCRATCH/511016/C12895-P3

>  <fragmenstein_runtime>  (82) 
53.47124791145325

>  <fragmenstein_outcome>  (82) 
too moved

>  <fragmenstein_mode>  (82) 
expansion

>  <fragmenstein_error>  (82) 


$$$$
C6302-P55
     RDKit          3D

 40 43  0  0  0  0  0  0  0  0999 V2000
    8.4891   -1.3592   14.8793 C   0  0  0  0  0  0  0  0  0  0  0  0
    7.4371   -1.6457   13.8418 C   0  0  0  0  0  0  0  0  0  0  0  0
    7.1203   -0.8611   12.7979 N   0  0  0  0  0  0  0  0  0  0  0  0
    5.9455   -1.3304   12.2667 C   0  0  0  0  0  0  0  0  0  0  0  0
    4.4276   -1.0608   11.4378 C   0  0  0  0  0  0  0  0  0  0  0  0
    3.1925   -2.4832   11.0864 C   0  0  0  0  0  0  0  0  0  0  0  0
    1.4919   -1.7737   10.3378 C   0  0  0  0  0  0  0  0  0  0  0  0
    1.0622   -0.9782   11.0572 O   0  0  0  0  0  0  0  0  0  0  0  0
    0.5416   -2.2670    8.9067 N   0  0  0  0  0  0  0  0  0  0  0  0
   -1.3619   -1.7105    8.2581 C   0  0  0  0  0  0  0  0  0  0  0  0
   -2.6700   -0.8969    8.5296 C   0  0  0  0  0  0  0  0  0  0  0  0
   -2.7167    0.3373    8.9343 N   0  0  0  0  0  0  0  0  0  0  0  0
   -3.9799    0.8061    8.8692 N   0  0  0  0  0  0  0  0  0  0  0  0
   -4.7734   -0.1130    8.4207 C   0  0  0  0  0  0  0  0  0  0  0  0
   -4.0232   -1.2295    8.1557 N   0  0  0  0  0  0  0  0  0  0  0  0
   -4.6997   -2.3022    7.4513 C   0  0  0  0  0  0  0  0  0  0  0  0
   -6.2151   -2.1104    7.1510 C   0  0  0  0  0  0  0  0  0  0  0  0
   -6.5997   -0.7145    6.9364 N   0  0  0  0  0  0  0  0  0  0  0  0
   -6.2230    0.0405    8.1311 C   0  0  0  0  0  0  0  0  0  0  0  0
    3.4118   -3.7398   11.3896 C   0  0  0  0  0  0  0  0  0  0  0  0
    4.3442   -3.4936   12.3265 C   0  0  0  0  0  0  0  0  0  0  0  0
    5.7242   -2.6330   12.8182 C   0  0  0  0  0  0  0  0  0  0  0  0
    6.4153   -2.5083   14.0406 N   0  0  0  0  0  0  0  0  0  0  0  0
    9.0594   -0.4609   14.6203 H   0  0  0  0  0  0  0  0  0  0  0  0
    9.1805   -2.1982   14.9750 H   0  0  0  0  0  0  0  0  0  0  0  0
    8.0158   -1.1634   15.8416 H   0  0  0  0  0  0  0  0  0  0  0  0
    4.2480   -0.0334   11.0550 H   0  0  0  0  0  0  0  0  0  0  0  0
    1.1186   -2.9175    8.3369 H   0  0  0  0  0  0  0  0  0  0  0  0
   -1.2005   -1.5025    7.1992 H   0  0  0  0  0  0  0  0  0  0  0  0
   -2.0755   -2.5409    8.2066 H   0  0  0  0  0  0  0  0  0  0  0  0
   -4.3004   -2.3316    6.4906 H   0  0  0  0  0  0  0  0  0  0  0  0
   -4.3858   -3.3048    7.7146 H   0  0  0  0  0  0  0  0  0  0  0  0
   -6.8692   -2.4913    7.9295 H   0  0  0  0  0  0  0  0  0  0  0  0
   -6.4845   -2.6964    6.2651 H   0  0  0  0  0  0  0  0  0  0  0  0
   -6.1178   -0.3214    6.1298 H   0  0  0  0  0  0  0  0  0  0  0  0
   -6.4578    1.0974    7.9638 H   0  0  0  0  0  0  0  0  0  0  0  0
   -6.8165   -0.2828    8.9940 H   0  0  0  0  0  0  0  0  0  0  0  0
    2.7100   -4.5334   11.4296 H   0  0  0  0  0  0  0  0  0  0  0  0
    3.6498   -3.5545   13.2341 H   0  0  0  0  0  0  0  0  0  0  0  0
    6.2511   -3.0717   14.8536 H   0  0  0  0  0  0  0  0  0  0  0  0
  1  2  1  0
  2  3  2  0
  3  4  1  0
  4  5  2  0
  5  6  1  0
  6  7  1  0
  7  8  2  0
  7  9  1  0
  9 10  1  0
 10 11  1  0
 11 12  2  0
 12 13  1  0
 13 14  2  0
 14 15  1  0
 15 16  1  0
 16 17  1  0
 17 18  1  0
 18 19  1  0
  6 20  2  0
 20 21  1  0
 21 22  2  0
 22 23  1  0
 23  2  1  0
 22  4  1  0
 15 11  1  0
 19 14  1  0
  1 24  1  0
  1 25  1  0
  1 26  1  0
  5 27  1  0
  9 28  1  0
 10 29  1  0
 10 30  1  0
 16 31  1  0
 16 32  1  0
 17 33  1  0
 17 34  1  0
 18 35  1  0
 19 36  1  0
 19 37  1  0
 20 38  1  0
 21 39  1  0
 23 40  1  0
M  END
>  <Energy>  (83) 
540.02464862221825

>  <compound_id>  (83) 
6302

>  <target_id>  (83) 
1

>  <reference_id>  (83) 
55

>  <inspiration_ids>  (83) 
[55, 65]

>  <energy_score>  (83) 
502.1373869703044

>  <distance_score>  (83) 
6.492808101360236

>  <path>  (83) 
/opt/xchem-fragalysis-2/maxwin/BulkDock/SCRATCH/511016/C6302-P55/C6302-P55.minimised.mol

>  <scratch_subdir>  (83) 
/opt/xchem-fragalysis-2/maxwin/BulkDock/SCRATCH/511016/C6302-P55

>  <fragmenstein_runtime>  (83) 
14.611950159072876

>  <fragmenstein_outcome>  (83) 
too moved

>  <fragmenstein_mode>  (83) 
expansion

>  <fragmenstein_error>  (83) 


$$$$
C6302-P65
     RDKit          3D

 40 43  0  0  0  0  0  0  0  0999 V2000
    8.8814    0.5401   16.9012 C   0  0  0  0  0  0  0  0  0  0  0  0
    8.4948   -0.5395   15.9613 C   0  0  0  0  0  0  0  0  0  0  0  0
    7.4382   -1.3388   15.9655 N   0  0  0  0  0  0  0  0  0  0  0  0
    7.2130   -1.9005   14.6925 C   0  0  0  0  0  0  0  0  0  0  0  0
    6.0650   -2.5023   13.9142 C   0  0  0  0  0  0  0  0  0  0  0  0
    5.5290   -2.4671   12.2353 C   0  0  0  0  0  0  0  0  0  0  0  0
    3.7453   -2.5539   11.1697 C   0  0  0  0  0  0  0  0  0  0  0  0
    3.7828   -3.5057   10.4202 O   0  0  0  0  0  0  0  0  0  0  0  0
    2.1432   -1.3946   11.0259 N   0  0  0  0  0  0  0  0  0  0  0  0
    0.5332   -1.3955    9.7323 C   0  0  0  0  0  0  0  0  0  0  0  0
   -1.4891   -1.3609    9.0014 C   0  0  0  0  0  0  0  0  0  0  0  0
   -1.9489   -2.1654    7.9974 N   0  0  0  0  0  0  0  0  0  0  0  0
   -3.2470   -2.4667    7.9410 N   0  0  0  0  0  0  0  0  0  0  0  0
   -3.8700   -1.4149    8.3529 C   0  0  0  0  0  0  0  0  0  0  0  0
   -2.8699   -0.4760    8.6674 N   0  0  0  0  0  0  0  0  0  0  0  0
   -3.0885    0.6834    7.7803 C   0  0  0  0  0  0  0  0  0  0  0  0
   -4.3156    0.6882    6.8358 C   0  0  0  0  0  0  0  0  0  0  0  0
   -5.5275    0.2250    7.4715 N   0  0  0  0  0  0  0  0  0  0  0  0
   -5.2927   -1.1400    7.9404 C   0  0  0  0  0  0  0  0  0  0  0  0
    6.6414   -1.4568   11.9957 C   0  0  0  0  0  0  0  0  0  0  0  0
    7.6674   -0.8442   12.7246 C   0  0  0  0  0  0  0  0  0  0  0  0
    8.0734   -1.1887   13.9786 C   0  0  0  0  0  0  0  0  0  0  0  0
    9.0853   -0.6820   14.7572 N   0  0  0  0  0  0  0  0  0  0  0  0
    8.4834    0.3631   17.9028 H   0  0  0  0  0  0  0  0  0  0  0  0
    9.9648    0.6432   16.9567 H   0  0  0  0  0  0  0  0  0  0  0  0
    8.4735    1.4948   16.5524 H   0  0  0  0  0  0  0  0  0  0  0  0
    5.3492   -2.8091   14.6675 H   0  0  0  0  0  0  0  0  0  0  0  0
    2.2692   -0.5934   11.6373 H   0  0  0  0  0  0  0  0  0  0  0  0
    0.4470   -1.9585   10.6656 H   0  0  0  0  0  0  0  0  0  0  0  0
   -0.1787   -0.9608   10.5417 H   0  0  0  0  0  0  0  0  0  0  0  0
   -2.2870    0.7042    7.0852 H   0  0  0  0  0  0  0  0  0  0  0  0
   -3.1553    1.5877    8.3677 H   0  0  0  0  0  0  0  0  0  0  0  0
   -4.4849    1.7091    6.4789 H   0  0  0  0  0  0  0  0  0  0  0  0
   -4.1102    0.0820    5.9429 H   0  0  0  0  0  0  0  0  0  0  0  0
   -5.7333    0.7837    8.3024 H   0  0  0  0  0  0  0  0  0  0  0  0
   -5.9970   -1.3606    8.7394 H   0  0  0  0  0  0  0  0  0  0  0  0
   -5.5505   -1.8240    7.1213 H   0  0  0  0  0  0  0  0  0  0  0  0
    6.8003   -0.9065   11.0647 H   0  0  0  0  0  0  0  0  0  0  0  0
    8.2631   -0.0983   12.2190 H   0  0  0  0  0  0  0  0  0  0  0  0
    9.8605   -0.1577   14.3790 H   0  0  0  0  0  0  0  0  0  0  0  0
  1  2  1  0
  2  3  2  0
  3  4  1  0
  4  5  2  0
  5  6  1  0
  6  7  1  0
  7  8  2  0
  7  9  1  0
  9 10  1  0
 10 11  1  0
 11 12  2  0
 12 13  1  0
 13 14  2  0
 14 15  1  0
 15 16  1  0
 16 17  1  0
 17 18  1  0
 18 19  1  0
  6 20  2  0
 20 21  1  0
 21 22  2  0
 22 23  1  0
 23  2  1  0
 22  4  1  0
 15 11  1  0
 19 14  1  0
  1 24  1  0
  1 25  1  0
  1 26  1  0
  5 27  1  0
  9 28  1  0
 10 29  1  0
 10 30  1  0
 16 31  1  0
 16 32  1  0
 17 33  1  0
 17 34  1  0
 18 35  1  0
 19 36  1  0
 19 37  1  0
 20 38  1  0
 21 39  1  0
 23 40  1  0
M  END
>  <Energy>  (84) 
859.44941420918929

>  <compound_id>  (84) 
6302

>  <target_id>  (84) 
1

>  <reference_id>  (84) 
65

>  <inspiration_ids>  (84) 
[55, 65]

>  <energy_score>  (84) 
821.5621525572749

>  <distance_score>  (84) 
5.210131135929387

>  <path>  (84) 
/opt/xchem-fragalysis-2/maxwin/BulkDock/SCRATCH/511016/C6302-P65/C6302-P65.minimised.mol

>  <scratch_subdir>  (84) 
/opt/xchem-fragalysis-2/maxwin/BulkDock/SCRATCH/511016/C6302-P65

>  <fragmenstein_runtime>  (84) 
8.489156484603882

>  <fragmenstein_outcome>  (84) 
too moved

>  <fragmenstein_mode>  (84) 
expansion

>  <fragmenstein_error>  (84) 


$$$$
C6302-P55
     RDKit          3D

 40 43  0  0  0  0  0  0  0  0999 V2000
    8.4891   -1.3592   14.8793 C   0  0  0  0  0  0  0  0  0  0  0  0
    7.4371   -1.6457   13.8418 C   0  0  0  0  0  0  0  0  0  0  0  0
    7.1203   -0.8611   12.7979 N   0  0  0  0  0  0  0  0  0  0  0  0
    5.9455   -1.3304   12.2667 C   0  0  0  0  0  0  0  0  0  0  0  0
    4.4276   -1.0608   11.4378 C   0  0  0  0  0  0  0  0  0  0  0  0
    3.1925   -2.4832   11.0864 C   0  0  0  0  0  0  0  0  0  0  0  0
    1.4919   -1.7737   10.3378 C   0  0  0  0  0  0  0  0  0  0  0  0
    1.0622   -0.9782   11.0572 O   0  0  0  0  0  0  0  0  0  0  0  0
    0.5416   -2.2670    8.9067 N   0  0  0  0  0  0  0  0  0  0  0  0
   -1.3619   -1.7105    8.2581 C   0  0  0  0  0  0  0  0  0  0  0  0
   -2.6700   -0.8969    8.5296 C   0  0  0  0  0  0  0  0  0  0  0  0
   -2.7167    0.3373    8.9343 N   0  0  0  0  0  0  0  0  0  0  0  0
   -3.9799    0.8061    8.8692 N   0  0  0  0  0  0  0  0  0  0  0  0
   -4.7734   -0.1130    8.4207 C   0  0  0  0  0  0  0  0  0  0  0  0
   -4.0232   -1.2295    8.1557 N   0  0  0  0  0  0  0  0  0  0  0  0
   -4.6997   -2.3022    7.4513 C   0  0  0  0  0  0  0  0  0  0  0  0
   -6.2151   -2.1104    7.1510 C   0  0  0  0  0  0  0  0  0  0  0  0
   -6.5997   -0.7145    6.9364 N   0  0  0  0  0  0  0  0  0  0  0  0
   -6.2230    0.0405    8.1311 C   0  0  0  0  0  0  0  0  0  0  0  0
    3.4118   -3.7398   11.3896 C   0  0  0  0  0  0  0  0  0  0  0  0
    4.3442   -3.4936   12.3265 C   0  0  0  0  0  0  0  0  0  0  0  0
    5.7242   -2.6330   12.8182 C   0  0  0  0  0  0  0  0  0  0  0  0
    6.4153   -2.5083   14.0406 N   0  0  0  0  0  0  0  0  0  0  0  0
    9.0594   -0.4609   14.6203 H   0  0  0  0  0  0  0  0  0  0  0  0
    9.1805   -2.1982   14.9750 H   0  0  0  0  0  0  0  0  0  0  0  0
    8.0158   -1.1634   15.8416 H   0  0  0  0  0  0  0  0  0  0  0  0
    4.2480   -0.0334   11.0550 H   0  0  0  0  0  0  0  0  0  0  0  0
    1.1186   -2.9175    8.3369 H   0  0  0  0  0  0  0  0  0  0  0  0
   -1.2005   -1.5025    7.1992 H   0  0  0  0  0  0  0  0  0  0  0  0
   -2.0755   -2.5409    8.2066 H   0  0  0  0  0  0  0  0  0  0  0  0
   -4.3004   -2.3316    6.4906 H   0  0  0  0  0  0  0  0  0  0  0  0
   -4.3858   -3.3048    7.7146 H   0  0  0  0  0  0  0  0  0  0  0  0
   -6.8692   -2.4913    7.9295 H   0  0  0  0  0  0  0  0  0  0  0  0
   -6.4845   -2.6964    6.2651 H   0  0  0  0  0  0  0  0  0  0  0  0
   -6.1178   -0.3214    6.1298 H   0  0  0  0  0  0  0  0  0  0  0  0
   -6.4578    1.0974    7.9638 H   0  0  0  0  0  0  0  0  0  0  0  0
   -6.8165   -0.2828    8.9940 H   0  0  0  0  0  0  0  0  0  0  0  0
    2.7100   -4.5334   11.4296 H   0  0  0  0  0  0  0  0  0  0  0  0
    3.6498   -3.5545   13.2341 H   0  0  0  0  0  0  0  0  0  0  0  0
    6.2511   -3.0717   14.8536 H   0  0  0  0  0  0  0  0  0  0  0  0
  1  2  1  0
  2  3  2  0
  3  4  1  0
  4  5  2  0
  5  6  1  0
  6  7  1  0
  7  8  2  0
  7  9  1  0
  9 10  1  0
 10 11  1  0
 11 12  2  0
 12 13  1  0
 13 14  2  0
 14 15  1  0
 15 16  1  0
 16 17  1  0
 17 18  1  0
 18 19  1  0
  6 20  2  0
 20 21  1  0
 21 22  2  0
 22 23  1  0
 23  2  1  0
 22  4  1  0
 15 11  1  0
 19 14  1  0
  1 24  1  0
  1 25  1  0
  1 26  1  0
  5 27  1  0
  9 28  1  0
 10 29  1  0
 10 30  1  0
 16 31  1  0
 16 32  1  0
 17 33  1  0
 17 34  1  0
 18 35  1  0
 19 36  1  0
 19 37  1  0
 20 38  1  0
 21 39  1  0
 23 40  1  0
M  END
>  <Energy>  (85) 
540.02464862221825

>  <compound_id>  (85) 
6302

>  <target_id>  (85) 
1

>  <reference_id>  (85) 
55

>  <inspiration_ids>  (85) 
[55, 65]

>  <energy_score>  (85) 
502.1373869703044

>  <distance_score>  (85) 
6.492808101360236

>  <path>  (85) 
/opt/xchem-fragalysis-2/maxwin/BulkDock/SCRATCH/511016/C6302-P55/C6302-P55.minimised.mol

>  <scratch_subdir>  (85) 
/opt/xchem-fragalysis-2/maxwin/BulkDock/SCRATCH/511016/C6302-P55

>  <fragmenstein_runtime>  (85) 
13.827321290969849

>  <fragmenstein_outcome>  (85) 
too moved

>  <fragmenstein_mode>  (85) 
expansion

>  <fragmenstein_error>  (85) 


$$$$
C6302-P65
     RDKit          3D

 40 43  0  0  0  0  0  0  0  0999 V2000
    8.8814    0.5401   16.9012 C   0  0  0  0  0  0  0  0  0  0  0  0
    8.4948   -0.5395   15.9613 C   0  0  0  0  0  0  0  0  0  0  0  0
    7.4382   -1.3388   15.9655 N   0  0  0  0  0  0  0  0  0  0  0  0
    7.2130   -1.9005   14.6925 C   0  0  0  0  0  0  0  0  0  0  0  0
    6.0650   -2.5023   13.9142 C   0  0  0  0  0  0  0  0  0  0  0  0
    5.5290   -2.4671   12.2353 C   0  0  0  0  0  0  0  0  0  0  0  0
    3.7453   -2.5539   11.1697 C   0  0  0  0  0  0  0  0  0  0  0  0
    3.7828   -3.5057   10.4202 O   0  0  0  0  0  0  0  0  0  0  0  0
    2.1432   -1.3946   11.0259 N   0  0  0  0  0  0  0  0  0  0  0  0
    0.5332   -1.3955    9.7323 C   0  0  0  0  0  0  0  0  0  0  0  0
   -1.4891   -1.3609    9.0014 C   0  0  0  0  0  0  0  0  0  0  0  0
   -1.9489   -2.1654    7.9974 N   0  0  0  0  0  0  0  0  0  0  0  0
   -3.2470   -2.4667    7.9410 N   0  0  0  0  0  0  0  0  0  0  0  0
   -3.8700   -1.4149    8.3529 C   0  0  0  0  0  0  0  0  0  0  0  0
   -2.8699   -0.4760    8.6674 N   0  0  0  0  0  0  0  0  0  0  0  0
   -3.0885    0.6834    7.7803 C   0  0  0  0  0  0  0  0  0  0  0  0
   -4.3156    0.6882    6.8358 C   0  0  0  0  0  0  0  0  0  0  0  0
   -5.5275    0.2250    7.4715 N   0  0  0  0  0  0  0  0  0  0  0  0
   -5.2927   -1.1400    7.9404 C   0  0  0  0  0  0  0  0  0  0  0  0
    6.6414   -1.4568   11.9957 C   0  0  0  0  0  0  0  0  0  0  0  0
    7.6674   -0.8442   12.7246 C   0  0  0  0  0  0  0  0  0  0  0  0
    8.0734   -1.1887   13.9786 C   0  0  0  0  0  0  0  0  0  0  0  0
    9.0853   -0.6820   14.7572 N   0  0  0  0  0  0  0  0  0  0  0  0
    8.4834    0.3631   17.9028 H   0  0  0  0  0  0  0  0  0  0  0  0
    9.9648    0.6432   16.9567 H   0  0  0  0  0  0  0  0  0  0  0  0
    8.4735    1.4948   16.5524 H   0  0  0  0  0  0  0  0  0  0  0  0
    5.3492   -2.8091   14.6675 H   0  0  0  0  0  0  0  0  0  0  0  0
    2.2692   -0.5934   11.6373 H   0  0  0  0  0  0  0  0  0  0  0  0
    0.4470   -1.9585   10.6656 H   0  0  0  0  0  0  0  0  0  0  0  0
   -0.1787   -0.9608   10.5417 H   0  0  0  0  0  0  0  0  0  0  0  0
   -2.2870    0.7042    7.0852 H   0  0  0  0  0  0  0  0  0  0  0  0
   -3.1553    1.5877    8.3677 H   0  0  0  0  0  0  0  0  0  0  0  0
   -4.4849    1.7091    6.4789 H   0  0  0  0  0  0  0  0  0  0  0  0
   -4.1102    0.0820    5.9429 H   0  0  0  0  0  0  0  0  0  0  0  0
   -5.7333    0.7837    8.3024 H   0  0  0  0  0  0  0  0  0  0  0  0
   -5.9970   -1.3606    8.7394 H   0  0  0  0  0  0  0  0  0  0  0  0
   -5.5505   -1.8240    7.1213 H   0  0  0  0  0  0  0  0  0  0  0  0
    6.8003   -0.9065   11.0647 H   0  0  0  0  0  0  0  0  0  0  0  0
    8.2631   -0.0983   12.2190 H   0  0  0  0  0  0  0  0  0  0  0  0
    9.8605   -0.1577   14.3790 H   0  0  0  0  0  0  0  0  0  0  0  0
  1  2  1  0
  2  3  2  0
  3  4  1  0
  4  5  2  0
  5  6  1  0
  6  7  1  0
  7  8  2  0
  7  9  1  0
  9 10  1  0
 10 11  1  0
 11 12  2  0
 12 13  1  0
 13 14  2  0
 14 15  1  0
 15 16  1  0
 16 17  1  0
 17 18  1  0
 18 19  1  0
  6 20  2  0
 20 21  1  0
 21 22  2  0
 22 23  1  0
 23  2  1  0
 22  4  1  0
 15 11  1  0
 19 14  1  0
  1 24  1  0
  1 25  1  0
  1 26  1  0
  5 27  1  0
  9 28  1  0
 10 29  1  0
 10 30  1  0
 16 31  1  0
 16 32  1  0
 17 33  1  0
 17 34  1  0
 18 35  1  0
 19 36  1  0
 19 37  1  0
 20 38  1  0
 21 39  1  0
 23 40  1  0
M  END
>  <Energy>  (86) 
859.44941420918929

>  <compound_id>  (86) 
6302

>  <target_id>  (86) 
1

>  <reference_id>  (86) 
65

>  <inspiration_ids>  (86) 
[55, 65]

>  <energy_score>  (86) 
821.5621525572749

>  <distance_score>  (86) 
5.210131135929387

>  <path>  (86) 
/opt/xchem-fragalysis-2/maxwin/BulkDock/SCRATCH/511016/C6302-P65/C6302-P65.minimised.mol

>  <scratch_subdir>  (86) 
/opt/xchem-fragalysis-2/maxwin/BulkDock/SCRATCH/511016/C6302-P65

>  <fragmenstein_runtime>  (86) 
12.197865962982178

>  <fragmenstein_outcome>  (86) 
too moved

>  <fragmenstein_mode>  (86) 
expansion

>  <fragmenstein_error>  (86) 


$$$$
C12511-P64
     RDKit          3D

 40 42  0  0  0  0  0  0  0  0999 V2000
  -11.6531  -24.2869   25.3422 C   0  0  0  0  0  0  0  0  0  0  0  0
  -12.5586  -25.4782   25.6216 C   0  0  0  0  0  0  0  0  0  0  0  0
  -14.0301  -25.1627   25.2720 C   0  0  0  0  0  0  0  0  0  0  0  0
  -12.1396  -26.8783   25.0077 C   0  0  0  0  0  0  0  0  0  0  0  0
  -10.8289  -27.6992   25.3638 C   0  0  0  0  0  0  0  0  0  0  0  0
  -10.4626  -29.5499   25.0165 C   0  0  0  0  0  0  0  0  0  0  0  0
  -10.8429  -30.2729   25.9069 O   0  0  0  0  0  0  0  0  0  0  0  0
   -9.7691  -29.8693   23.7807 N   0  0  0  0  0  0  0  0  0  0  0  0
   -9.4196  -31.1095   23.2109 C   0  0  0  0  0  0  0  0  0  0  0  0
  -10.1005  -32.2550   23.6421 C   0  0  0  0  0  0  0  0  0  0  0  0
   -9.7820  -33.5354   23.1729 C   0  0  0  0  0  0  0  0  0  0  0  0
   -8.7054  -33.6879   22.2882 C   0  0  0  0  0  0  0  0  0  0  0  0
   -8.2069  -34.8986   21.8322 N   0  0  0  0  0  0  0  0  0  0  0  0
   -7.1593  -34.6700   21.0744 C   0  0  0  0  0  0  0  0  0  0  0  0
   -6.7587  -33.0295   20.7979 S   0  0  0  0  0  0  0  0  0  0  0  0
   -8.0461  -32.5392   21.8388 C   0  0  0  0  0  0  0  0  0  0  0  0
   -8.4226  -31.2335   22.2447 C   0  0  0  0  0  0  0  0  0  0  0  0
  -10.7460  -27.2518   26.8204 N   0  0  0  0  0  0  0  0  0  0  0  0
  -10.1502  -26.1648   27.4118 C   0  0  0  0  0  0  0  0  0  0  0  0
  -10.3613  -26.2793   28.7567 C   0  0  0  0  0  0  0  0  0  0  0  0
  -11.2146  -27.3047   28.9690 N   0  0  0  0  0  0  0  0  0  0  0  0
  -11.5739  -27.7277   27.7850 C   0  0  0  0  0  0  0  0  0  0  0  0
  -12.1341  -23.5229   24.7226 H   0  0  0  0  0  0  0  0  0  0  0  0
  -11.4061  -23.7867   26.2853 H   0  0  0  0  0  0  0  0  0  0  0  0
  -10.7209  -24.5821   24.8616 H   0  0  0  0  0  0  0  0  0  0  0  0
  -12.6023  -25.5704   26.7112 H   0  0  0  0  0  0  0  0  0  0  0  0
  -14.2474  -25.2764   24.2086 H   0  0  0  0  0  0  0  0  0  0  0  0
  -14.7005  -25.8436   25.8091 H   0  0  0  0  0  0  0  0  0  0  0  0
  -14.2962  -24.1430   25.5618 H   0  0  0  0  0  0  0  0  0  0  0  0
  -12.9935  -27.3971   25.4018 H   0  0  0  0  0  0  0  0  0  0  0  0
  -12.2412  -26.9002   23.9481 H   0  0  0  0  0  0  0  0  0  0  0  0
  -10.0091  -27.1774   24.9209 H   0  0  0  0  0  0  0  0  0  0  0  0
   -9.6824  -29.0455   23.2383 H   0  0  0  0  0  0  0  0  0  0  0  0
  -10.9083  -32.1718   24.3642 H   0  0  0  0  0  0  0  0  0  0  0  0
  -10.3158  -34.4078   23.5339 H   0  0  0  0  0  0  0  0  0  0  0  0
   -6.5815  -35.4690   20.6298 H   0  0  0  0  0  0  0  0  0  0  0  0
   -7.8653  -30.3769   21.8843 H   0  0  0  0  0  0  0  0  0  0  0  0
   -9.6931  -25.3447   26.9087 H   0  0  0  0  0  0  0  0  0  0  0  0
  -10.0147  -25.6467   29.5641 H   0  0  0  0  0  0  0  0  0  0  0  0
  -12.3388  -28.4617   27.6300 H   0  0  0  0  0  0  0  0  0  0  0  0
  1  2  1  0
  2  3  1  0
  2  4  1  0
  4  5  1  0
  5  6  1  0
  6  7  2  0
  6  8  1  0
  8  9  1  0
  9 10  2  0
 10 11  1  0
 11 12  2  0
 12 13  1  0
 13 14  2  0
 14 15  1  0
 15 16  1  0
 16 17  2  0
  5 18  1  0
 18 19  1  0
 19 20  2  0
 20 21  1  0
 21 22  2  0
 17  9  1  0
 22 18  1  0
 16 12  1  0
  1 23  1  0
  1 24  1  0
  1 25  1  0
  2 26  1  0
  3 27  1  0
  3 28  1  0
  3 29  1  0
  4 30  1  0
  4 31  1  0
  5 32  1  0
  8 33  1  0
 10 34  1  0
 11 35  1  0
 14 36  1  0
 17 37  1  0
 19 38  1  0
 20 39  1  0
 22 40  1  0
M  END
>  <Energy>  (87) 
110.55719432431484

>  <compound_id>  (87) 
12511

>  <target_id>  (87) 
1

>  <reference_id>  (87) 
64

>  <inspiration_ids>  (87) 
[64, 68]

>  <energy_score>  (87) 
-6.540419354320704

>  <distance_score>  (87) 
3.4619865575280944

>  <path>  (87) 
/opt/xchem-fragalysis-2/maxwin/BulkDock/SCRATCH/511016/C12511-P64/C12511-P64.minimised.mol

>  <scratch_subdir>  (87) 
/opt/xchem-fragalysis-2/maxwin/BulkDock/SCRATCH/511016/C12511-P64

>  <fragmenstein_runtime>  (87) 
7.070331811904907

>  <fragmenstein_outcome>  (87) 
too moved

>  <fragmenstein_mode>  (87) 
expansion

>  <fragmenstein_error>  (87) 


$$$$
C12511-P68
     RDKit          3D

 40 42  0  0  0  0  0  0  0  0999 V2000
   -9.0007  -24.5529   25.7112 C   0  0  0  0  0  0  0  0  0  0  0  0
   -9.8365  -25.6947   25.9564 C   0  0  0  0  0  0  0  0  0  0  0  0
  -11.0738  -24.5716   26.2867 C   0  0  0  0  0  0  0  0  0  0  0  0
   -9.2433  -27.2871   25.0221 C   0  0  0  0  0  0  0  0  0  0  0  0
   -9.9054  -28.4013   24.9480 C   0  0  0  0  0  0  0  0  0  0  0  0
   -9.0802  -29.9037   23.5326 C   0  0  0  0  0  0  0  0  0  0  0  0
   -7.9006  -29.7318   23.3950 O   0  0  0  0  0  0  0  0  0  0  0  0
  -10.1891  -31.2107   22.9120 N   0  0  0  0  0  0  0  0  0  0  0  0
   -9.9190  -32.3989   22.2001 C   0  0  0  0  0  0  0  0  0  0  0  0
  -10.7435  -32.6772   21.1155 C   0  0  0  0  0  0  0  0  0  0  0  0
  -11.0305  -33.9988   20.6940 C   0  0  0  0  0  0  0  0  0  0  0  0
  -10.5244  -35.0998   21.4092 C   0  0  0  0  0  0  0  0  0  0  0  0
  -10.6134  -36.4397   21.0764 N   0  0  0  0  0  0  0  0  0  0  0  0
  -10.0532  -37.1642   22.0205 C   0  0  0  0  0  0  0  0  0  0  0  0
   -9.4606  -36.3101   23.3804 S   0  0  0  0  0  0  0  0  0  0  0  0
   -9.9039  -34.8338   22.6213 C   0  0  0  0  0  0  0  0  0  0  0  0
   -9.7586  -33.5113   23.0673 C   0  0  0  0  0  0  0  0  0  0  0  0
  -11.1855  -27.5818   25.3648 N   0  0  0  0  0  0  0  0  0  0  0  0
  -11.4654  -27.2528   26.6740 C   0  0  0  0  0  0  0  0  0  0  0  0
  -12.7524  -26.6151   26.5548 C   0  0  0  0  0  0  0  0  0  0  0  0
  -13.2493  -26.8299   25.3707 N   0  0  0  0  0  0  0  0  0  0  0  0
  -12.4607  -27.8396   25.3167 C   0  0  0  0  0  0  0  0  0  0  0  0
   -8.1356  -24.3857   25.1113 H   0  0  0  0  0  0  0  0  0  0  0  0
   -8.8593  -24.0111   26.6587 H   0  0  0  0  0  0  0  0  0  0  0  0
   -9.6152  -24.1164   24.9379 H   0  0  0  0  0  0  0  0  0  0  0  0
   -9.7453  -25.9710   27.0014 H   0  0  0  0  0  0  0  0  0  0  0  0
  -10.8566  -24.1307   27.2721 H   0  0  0  0  0  0  0  0  0  0  0  0
  -11.0840  -23.6332   25.7253 H   0  0  0  0  0  0  0  0  0  0  0  0
  -12.1257  -24.7585   26.2163 H   0  0  0  0  0  0  0  0  0  0  0  0
   -9.0425  -27.4918   23.9256 H   0  0  0  0  0  0  0  0  0  0  0  0
   -8.4543  -28.0124   25.1095 H   0  0  0  0  0  0  0  0  0  0  0  0
   -9.7898  -28.6998   26.0646 H   0  0  0  0  0  0  0  0  0  0  0  0
  -11.1425  -31.0217   23.1348 H   0  0  0  0  0  0  0  0  0  0  0  0
  -11.2006  -31.8584   20.5581 H   0  0  0  0  0  0  0  0  0  0  0  0
  -11.6172  -34.1677   19.7951 H   0  0  0  0  0  0  0  0  0  0  0  0
   -9.9887  -38.2429   21.9592 H   0  0  0  0  0  0  0  0  0  0  0  0
   -9.4649  -33.3511   24.1052 H   0  0  0  0  0  0  0  0  0  0  0  0
  -10.7844  -27.5447   27.4715 H   0  0  0  0  0  0  0  0  0  0  0  0
  -13.3384  -26.1120   27.2834 H   0  0  0  0  0  0  0  0  0  0  0  0
  -12.6025  -28.7974   25.7428 H   0  0  0  0  0  0  0  0  0  0  0  0
  1  2  1  0
  2  3  1  0
  2  4  1  0
  4  5  1  0
  5  6  1  0
  6  7  2  0
  6  8  1  0
  8  9  1  0
  9 10  2  0
 10 11  1  0
 11 12  2  0
 12 13  1  0
 13 14  2  0
 14 15  1  0
 15 16  1  0
 16 17  2  0
  5 18  1  0
 18 19  1  0
 19 20  2  0
 20 21  1  0
 21 22  2  0
 17  9  1  0
 22 18  1  0
 16 12  1  0
  1 23  1  0
  1 24  1  0
  1 25  1  0
  2 26  1  0
  3 27  1  0
  3 28  1  0
  3 29  1  0
  4 30  1  0
  4 31  1  0
  5 32  1  0
  8 33  1  0
 10 34  1  0
 11 35  1  0
 14 36  1  0
 17 37  1  0
 19 38  1  0
 20 39  1  0
 22 40  1  0
M  END
>  <Energy>  (88) 
696.92966802380113

>  <compound_id>  (88) 
12511

>  <target_id>  (88) 
1

>  <reference_id>  (88) 
68

>  <inspiration_ids>  (88) 
[64, 68]

>  <energy_score>  (88) 
579.8320543451694

>  <distance_score>  (88) 
3.223284258563256

>  <path>  (88) 
/opt/xchem-fragalysis-2/maxwin/BulkDock/SCRATCH/511016/C12511-P68/C12511-P68.minimised.mol

>  <scratch_subdir>  (88) 
/opt/xchem-fragalysis-2/maxwin/BulkDock/SCRATCH/511016/C12511-P68

>  <fragmenstein_runtime>  (88) 
10.634022235870361

>  <fragmenstein_outcome>  (88) 
too moved

>  <fragmenstein_mode>  (88) 
expansion

>  <fragmenstein_error>  (88) 


$$$$
C12512-P64
     RDKit          3D

 40 42  0  0  0  0  0  0  0  0999 V2000
  -10.1497  -26.8028   27.3574 C   0  0  0  0  0  0  0  0  0  0  0  0
  -11.3178  -27.4583   26.5532 C   0  0  0  0  0  0  0  0  0  0  0  0
  -12.2174  -26.1893   26.3837 C   0  0  0  0  0  0  0  0  0  0  0  0
  -13.6786  -26.3312   26.2052 C   0  0  0  0  0  0  0  0  0  0  0  0
  -14.6588  -27.0942   26.7966 C   0  0  0  0  0  0  0  0  0  0  0  0
  -15.8897  -26.7957   26.2779 N   0  0  0  0  0  0  0  0  0  0  0  0
  -15.6892  -25.7831   25.4698 C   0  0  0  0  0  0  0  0  0  0  0  0
  -14.3698  -25.4554   25.4037 N   0  0  0  0  0  0  0  0  0  0  0  0
  -10.8087  -28.0806   25.0918 C   0  0  0  0  0  0  0  0  0  0  0  0
  -10.7712  -27.2115   24.2740 O   0  0  0  0  0  0  0  0  0  0  0  0
  -10.3748  -29.5523   24.9966 N   0  0  0  0  0  0  0  0  0  0  0  0
   -9.6769  -30.3166   23.8753 C   0  0  0  0  0  0  0  0  0  0  0  0
   -9.5268  -29.8271   22.4266 C   0  0  0  0  0  0  0  0  0  0  0  0
   -9.9668  -31.8421   23.7432 C   0  0  0  0  0  0  0  0  0  0  0  0
  -11.1807  -32.4572   24.0530 C   0  0  0  0  0  0  0  0  0  0  0  0
  -11.3918  -33.8369   23.8425 C   0  0  0  0  0  0  0  0  0  0  0  0
  -10.3853  -34.6359   23.2653 C   0  0  0  0  0  0  0  0  0  0  0  0
  -10.4423  -36.0032   23.0361 N   0  0  0  0  0  0  0  0  0  0  0  0
   -9.3312  -36.3946   22.4539 C   0  0  0  0  0  0  0  0  0  0  0  0
   -8.1666  -35.1825   22.1392 S   0  0  0  0  0  0  0  0  0  0  0  0
   -9.2032  -34.0141   22.8727 C   0  0  0  0  0  0  0  0  0  0  0  0
   -8.9845  -32.6408   23.1012 C   0  0  0  0  0  0  0  0  0  0  0  0
  -10.3178  -26.9286   28.4333 H   0  0  0  0  0  0  0  0  0  0  0  0
   -9.1690  -27.1849   27.0979 H   0  0  0  0  0  0  0  0  0  0  0  0
  -10.0683  -25.7199   27.2008 H   0  0  0  0  0  0  0  0  0  0  0  0
  -11.8012  -28.2032   27.1851 H   0  0  0  0  0  0  0  0  0  0  0  0
  -12.1376  -25.5586   27.2819 H   0  0  0  0  0  0  0  0  0  0  0  0
  -11.8190  -25.5627   25.5744 H   0  0  0  0  0  0  0  0  0  0  0  0
  -14.5545  -27.8513   27.5617 H   0  0  0  0  0  0  0  0  0  0  0  0
  -16.4559  -25.2487   24.9258 H   0  0  0  0  0  0  0  0  0  0  0  0
  -13.9733  -24.6711   24.9032 H   0  0  0  0  0  0  0  0  0  0  0  0
  -10.6215  -30.0269   25.8412 H   0  0  0  0  0  0  0  0  0  0  0  0
   -8.6652  -30.2507   24.2645 H   0  0  0  0  0  0  0  0  0  0  0  0
  -10.1058  -30.4151   21.7011 H   0  0  0  0  0  0  0  0  0  0  0  0
   -9.8161  -28.7958   22.2886 H   0  0  0  0  0  0  0  0  0  0  0  0
   -8.4822  -29.9311   22.1077 H   0  0  0  0  0  0  0  0  0  0  0  0
  -12.0098  -31.8871   24.4410 H   0  0  0  0  0  0  0  0  0  0  0  0
  -12.3372  -34.2942   24.1180 H   0  0  0  0  0  0  0  0  0  0  0  0
   -9.1590  -37.4263   22.1772 H   0  0  0  0  0  0  0  0  0  0  0  0
   -8.0406  -32.1946   22.7873 H   0  0  0  0  0  0  0  0  0  0  0  0
  1  2  1  0
  2  3  1  0
  3  4  1  0
  4  5  2  0
  5  6  1  0
  6  7  2  0
  7  8  1  0
  2  9  1  0
  9 10  2  0
  9 11  1  0
 11 12  1  0
 12 13  1  0
 12 14  1  0
 14 15  2  0
 15 16  1  0
 16 17  2  0
 17 18  1  0
 18 19  2  0
 19 20  1  0
 20 21  1  0
 21 22  2  0
  8  4  1  0
 22 14  1  0
 21 17  1  0
  1 23  1  0
  1 24  1  0
  1 25  1  0
  2 26  1  0
  3 27  1  0
  3 28  1  0
  5 29  1  0
  7 30  1  0
  8 31  1  0
 11 32  1  0
 12 33  1  0
 13 34  1  0
 13 35  1  0
 13 36  1  0
 15 37  1  0
 16 38  1  0
 19 39  1  0
 22 40  1  0
M  END
>  <Energy>  (89) 
61.716486186897605

>  <compound_id>  (89) 
12512

>  <target_id>  (89) 
1

>  <reference_id>  (89) 
64

>  <inspiration_ids>  (89) 
[64, 68]

>  <energy_score>  (89) 
-25.949801478509755

>  <distance_score>  (89) 
3.6152248336527237

>  <path>  (89) 
/opt/xchem-fragalysis-2/maxwin/BulkDock/SCRATCH/511016/C12512-P64/C12512-P64.minimised.mol

>  <scratch_subdir>  (89) 
/opt/xchem-fragalysis-2/maxwin/BulkDock/SCRATCH/511016/C12512-P64

>  <fragmenstein_runtime>  (89) 
6.813829183578491

>  <fragmenstein_outcome>  (89) 
too moved

>  <fragmenstein_mode>  (89) 
expansion

>  <fragmenstein_error>  (89) 


$$$$
C12512-P68
     RDKit          3D

 40 42  0  0  0  0  0  0  0  0999 V2000
  -10.2908  -27.6046   27.5019 C   0  0  0  0  0  0  0  0  0  0  0  0
  -10.4146  -26.6090   26.3012 C   0  0  0  0  0  0  0  0  0  0  0  0
   -9.9812  -25.1643   26.1647 C   0  0  0  0  0  0  0  0  0  0  0  0
  -10.4699  -24.1255   27.0522 C   0  0  0  0  0  0  0  0  0  0  0  0
   -9.8045  -23.5558   28.0846 C   0  0  0  0  0  0  0  0  0  0  0  0
  -10.4596  -22.4913   28.6106 N   0  0  0  0  0  0  0  0  0  0  0  0
  -11.4861  -22.3351   27.8312 C   0  0  0  0  0  0  0  0  0  0  0  0
  -11.5801  -23.3455   26.9080 N   0  0  0  0  0  0  0  0  0  0  0  0
  -10.6206  -27.6326   25.2389 C   0  0  0  0  0  0  0  0  0  0  0  0
  -11.8212  -27.7785   25.0357 O   0  0  0  0  0  0  0  0  0  0  0  0
   -9.2834  -28.4945   24.5931 N   0  0  0  0  0  0  0  0  0  0  0  0
   -9.2215  -30.2128   23.3433 C   0  0  0  0  0  0  0  0  0  0  0  0
  -10.3729  -30.4731   21.8471 C   0  0  0  0  0  0  0  0  0  0  0  0
   -9.7448  -32.1066   23.4636 C   0  0  0  0  0  0  0  0  0  0  0  0
  -10.3966  -32.9315   24.4499 C   0  0  0  0  0  0  0  0  0  0  0  0
  -10.6193  -34.3424   24.5116 C   0  0  0  0  0  0  0  0  0  0  0  0
  -10.3836  -35.1278   23.4126 C   0  0  0  0  0  0  0  0  0  0  0  0
  -10.5377  -36.4962   23.3304 N   0  0  0  0  0  0  0  0  0  0  0  0
  -10.3446  -36.8640   22.0890 C   0  0  0  0  0  0  0  0  0  0  0  0
  -10.0644  -35.5983   20.9828 S   0  0  0  0  0  0  0  0  0  0  0  0
  -10.0324  -34.4423   22.2673 C   0  0  0  0  0  0  0  0  0  0  0  0
   -9.7424  -33.0144   22.2904 C   0  0  0  0  0  0  0  0  0  0  0  0
   -9.6309  -28.4721   27.4046 H   0  0  0  0  0  0  0  0  0  0  0  0
  -11.2153  -28.1319   27.6408 H   0  0  0  0  0  0  0  0  0  0  0  0
  -10.0972  -27.1309   28.4458 H   0  0  0  0  0  0  0  0  0  0  0  0
  -11.4786  -26.3368   26.4200 H   0  0  0  0  0  0  0  0  0  0  0  0
  -10.2834  -24.7890   25.2297 H   0  0  0  0  0  0  0  0  0  0  0  0
   -8.9414  -24.9566   26.0750 H   0  0  0  0  0  0  0  0  0  0  0  0
   -8.8124  -23.8041   28.3691 H   0  0  0  0  0  0  0  0  0  0  0  0
  -12.1935  -21.5274   27.9003 H   0  0  0  0  0  0  0  0  0  0  0  0
  -12.3479  -23.4421   26.2621 H   0  0  0  0  0  0  0  0  0  0  0  0
   -8.4544  -28.1868   25.0171 H   0  0  0  0  0  0  0  0  0  0  0  0
   -8.2382  -29.8133   23.1319 H   0  0  0  0  0  0  0  0  0  0  0  0
  -10.6709  -29.5609   21.4098 H   0  0  0  0  0  0  0  0  0  0  0  0
  -11.2945  -31.0141   22.1180 H   0  0  0  0  0  0  0  0  0  0  0  0
   -9.9659  -30.9837   20.9743 H   0  0  0  0  0  0  0  0  0  0  0  0
  -10.9112  -32.5895   25.3410 H   0  0  0  0  0  0  0  0  0  0  0  0
  -11.0408  -34.7939   25.3987 H   0  0  0  0  0  0  0  0  0  0  0  0
  -10.3975  -37.8989   21.7769 H   0  0  0  0  0  0  0  0  0  0  0  0
   -9.4269  -32.6751   21.3207 H   0  0  0  0  0  0  0  0  0  0  0  0
  1  2  1  0
  2  3  1  0
  3  4  1  0
  4  5  2  0
  5  6  1  0
  6  7  2  0
  7  8  1  0
  2  9  1  0
  9 10  2  0
  9 11  1  0
 11 12  1  0
 12 13  1  0
 12 14  1  0
 14 15  2  0
 15 16  1  0
 16 17  2  0
 17 18  1  0
 18 19  2  0
 19 20  1  0
 20 21  1  0
 21 22  2  0
  8  4  1  0
 22 14  1  0
 21 17  1  0
  1 23  1  0
  1 24  1  0
  1 25  1  0
  2 26  1  0
  3 27  1  0
  3 28  1  0
  5 29  1  0
  7 30  1  0
  8 31  1  0
 11 32  1  0
 12 33  1  0
 13 34  1  0
 13 35  1  0
 13 36  1  0
 15 37  1  0
 16 38  1  0
 19 39  1  0
 22 40  1  0
M  END
>  <Energy>  (90) 
421.02442352356019

>  <compound_id>  (90) 
12512

>  <target_id>  (90) 
1

>  <reference_id>  (90) 
68

>  <inspiration_ids>  (90) 
[64, 68]

>  <energy_score>  (90) 
333.3581358581546

>  <distance_score>  (90) 
3.186775808518608

>  <path>  (90) 
/opt/xchem-fragalysis-2/maxwin/BulkDock/SCRATCH/511016/C12512-P68/C12512-P68.minimised.mol

>  <scratch_subdir>  (90) 
/opt/xchem-fragalysis-2/maxwin/BulkDock/SCRATCH/511016/C12512-P68

>  <fragmenstein_runtime>  (90) 
7.681432008743286

>  <fragmenstein_outcome>  (90) 
too moved

>  <fragmenstein_mode>  (90) 
expansion

>  <fragmenstein_error>  (90) 


$$$$
C12513-P64
     RDKit          3D

 32 34  0  0  0  0  0  0  0  0999 V2000
  -12.1511  -32.2864   22.9214 C   0  0  0  0  0  0  0  0  0  0  0  0
  -10.8715  -32.1485   23.7665 C   0  0  0  0  0  0  0  0  0  0  0  0
  -10.1184  -30.8456   23.5609 N   0  0  0  0  0  0  0  0  0  0  0  0
  -10.0001  -29.8679   24.7695 C   0  0  0  0  0  0  0  0  0  0  0  0
  -10.4890  -28.1753   25.1219 C   0  0  0  0  0  0  0  0  0  0  0  0
   -9.9086  -27.4389   26.0848 N   0  0  0  0  0  0  0  0  0  0  0  0
  -10.7736  -26.4922   26.5733 C   0  0  0  0  0  0  0  0  0  0  0  0
  -10.4672  -25.5119   28.1542 Br  0  0  0  0  0  0  0  0  0  0  0  0
  -11.8056  -26.3798   25.6985 C   0  0  0  0  0  0  0  0  0  0  0  0
  -11.5635  -27.3732   24.7662 N   0  0  0  0  0  0  0  0  0  0  0  0
  -10.1289  -33.4854   23.5102 C   0  0  0  0  0  0  0  0  0  0  0  0
  -10.6150  -34.6369   24.1784 C   0  0  0  0  0  0  0  0  0  0  0  0
   -9.9745  -35.8786   24.1107 C   0  0  0  0  0  0  0  0  0  0  0  0
   -8.8422  -36.0185   23.2969 C   0  0  0  0  0  0  0  0  0  0  0  0
   -8.0727  -37.1672   23.1845 N   0  0  0  0  0  0  0  0  0  0  0  0
   -7.1212  -36.9596   22.3052 C   0  0  0  0  0  0  0  0  0  0  0  0
   -7.0871  -35.4164   21.5671 S   0  0  0  0  0  0  0  0  0  0  0  0
   -8.4314  -34.9214   22.5318 C   0  0  0  0  0  0  0  0  0  0  0  0
   -9.0579  -33.6492   22.6219 C   0  0  0  0  0  0  0  0  0  0  0  0
  -12.5252  -33.3153   22.8591 H   0  0  0  0  0  0  0  0  0  0  0  0
  -11.9858  -31.9545   21.8898 H   0  0  0  0  0  0  0  0  0  0  0  0
  -12.9722  -31.7219   23.3551 H   0  0  0  0  0  0  0  0  0  0  0  0
  -11.1849  -32.1779   24.8160 H   0  0  0  0  0  0  0  0  0  0  0  0
  -10.5938  -30.3081   22.8367 H   0  0  0  0  0  0  0  0  0  0  0  0
   -8.9177  -29.7735   24.8817 H   0  0  0  0  0  0  0  0  0  0  0  0
  -10.3585  -30.4449   25.6229 H   0  0  0  0  0  0  0  0  0  0  0  0
  -12.6755  -25.7428   25.6565 H   0  0  0  0  0  0  0  0  0  0  0  0
  -12.1818  -27.5955   24.0207 H   0  0  0  0  0  0  0  0  0  0  0  0
  -11.4878  -34.5578   24.8256 H   0  0  0  0  0  0  0  0  0  0  0  0
  -10.3339  -36.7238   24.6880 H   0  0  0  0  0  0  0  0  0  0  0  0
   -6.3982  -37.7213   22.0448 H   0  0  0  0  0  0  0  0  0  0  0  0
   -8.6680  -32.8035   22.0587 H   0  0  0  0  0  0  0  0  0  0  0  0
  1  2  1  0
  2  3  1  0
  3  4  1  0
  4  5  1  0
  5  6  2  0
  6  7  1  0
  7  8  1  0
  7  9  2  0
  9 10  1  0
  2 11  1  0
 11 12  2  0
 12 13  1  0
 13 14  2  0
 14 15  1  0
 15 16  2  0
 16 17  1  0
 17 18  1  0
 18 19  2  0
 10  5  1  0
 19 11  1  0
 18 14  1  0
  1 20  1  0
  1 21  1  0
  1 22  1  0
  2 23  1  0
  3 24  1  0
  4 25  1  0
  4 26  1  0
  9 27  1  0
 10 28  1  0
 12 29  1  0
 13 30  1  0
 16 31  1  0
 19 32  1  0
M  END
>  <Energy>  (91) 
93.303032339105826

>  <compound_id>  (91) 
12513

>  <target_id>  (91) 
1

>  <reference_id>  (91) 
64

>  <inspiration_ids>  (91) 
[64, 68]

>  <energy_score>  (91) 
31.14121758923102

>  <distance_score>  (91) 
1.917404596324228

>  <path>  (91) 
/opt/xchem-fragalysis-2/maxwin/BulkDock/SCRATCH/511016/C12513-P64/C12513-P64.minimised.mol

>  <scratch_subdir>  (91) 
/opt/xchem-fragalysis-2/maxwin/BulkDock/SCRATCH/511016/C12513-P64

>  <fragmenstein_runtime>  (91) 
2.527902603149414

>  <fragmenstein_outcome>  (91) 
too moved

>  <fragmenstein_mode>  (91) 
expansion

>  <fragmenstein_error>  (91) 


$$$$
C12513-P68
     RDKit          3D

 32 34  0  0  0  0  0  0  0  0999 V2000
  -13.7193  -33.9357   22.9394 C   0  0  0  0  0  0  0  0  0  0  0  0
  -12.6095  -33.5873   23.9297 C   0  0  0  0  0  0  0  0  0  0  0  0
  -13.0101  -33.1093   25.2559 N   0  0  0  0  0  0  0  0  0  0  0  0
  -14.3553  -33.3158   25.7735 C   0  0  0  0  0  0  0  0  0  0  0  0
  -15.3783  -32.3024   25.3322 C   0  0  0  0  0  0  0  0  0  0  0  0
  -15.5187  -31.0300   25.6802 N   0  0  0  0  0  0  0  0  0  0  0  0
  -16.7117  -30.6226   25.1142 C   0  0  0  0  0  0  0  0  0  0  0  0
  -17.5099  -28.9129   25.2459 Br  0  0  0  0  0  0  0  0  0  0  0  0
  -17.2632  -31.6282   24.3699 C   0  0  0  0  0  0  0  0  0  0  0  0
  -16.4172  -32.6836   24.5175 N   0  0  0  0  0  0  0  0  0  0  0  0
  -11.6224  -34.7524   24.0375 C   0  0  0  0  0  0  0  0  0  0  0  0
  -11.9317  -35.8929   24.7882 C   0  0  0  0  0  0  0  0  0  0  0  0
  -11.0337  -36.9625   24.8944 C   0  0  0  0  0  0  0  0  0  0  0  0
   -9.7985  -36.9155   24.2225 C   0  0  0  0  0  0  0  0  0  0  0  0
   -8.8299  -37.9025   24.2470 N   0  0  0  0  0  0  0  0  0  0  0  0
   -7.8018  -37.5308   23.5210 C   0  0  0  0  0  0  0  0  0  0  0  0
   -7.9485  -36.0239   22.7238 S   0  0  0  0  0  0  0  0  0  0  0  0
   -9.4994  -35.7926   23.4499 C   0  0  0  0  0  0  0  0  0  0  0  0
  -10.3925  -34.7051   23.3455 C   0  0  0  0  0  0  0  0  0  0  0  0
  -13.2949  -34.2641   21.9828 H   0  0  0  0  0  0  0  0  0  0  0  0
  -14.3602  -34.7480   23.2978 H   0  0  0  0  0  0  0  0  0  0  0  0
  -14.3412  -33.0622   22.7230 H   0  0  0  0  0  0  0  0  0  0  0  0
  -12.0591  -32.7570   23.4694 H   0  0  0  0  0  0  0  0  0  0  0  0
  -12.7434  -32.1460   25.4203 H   0  0  0  0  0  0  0  0  0  0  0  0
  -14.7005  -34.3368   25.5757 H   0  0  0  0  0  0  0  0  0  0  0  0
  -14.2984  -33.2420   26.8665 H   0  0  0  0  0  0  0  0  0  0  0  0
  -18.1657  -31.6883   23.7781 H   0  0  0  0  0  0  0  0  0  0  0  0
  -16.5466  -33.6073   24.1261 H   0  0  0  0  0  0  0  0  0  0  0  0
  -12.8793  -35.9605   25.3163 H   0  0  0  0  0  0  0  0  0  0  0  0
  -11.2771  -37.8375   25.4890 H   0  0  0  0  0  0  0  0  0  0  0  0
   -6.9156  -38.1459   23.4256 H   0  0  0  0  0  0  0  0  0  0  0  0
  -10.1278  -33.8449   22.7377 H   0  0  0  0  0  0  0  0  0  0  0  0
  1  2  1  0
  2  3  1  0
  3  4  1  0
  4  5  1  0
  5  6  2  0
  6  7  1  0
  7  8  1  0
  7  9  2  0
  9 10  1  0
  2 11  1  0
 11 12  2  0
 12 13  1  0
 13 14  2  0
 14 15  1  0
 15 16  2  0
 16 17  1  0
 17 18  1  0
 18 19  2  0
 10  5  1  0
 19 11  1  0
 18 14  1  0
  1 20  1  0
  1 21  1  0
  1 22  1  0
  2 23  1  0
  3 24  1  0
  4 25  1  0
  4 26  1  0
  9 27  1  0
 10 28  1  0
 12 29  1  0
 13 30  1  0
 16 31  1  0
 19 32  1  0
M  END
>  <Energy>  (92) 
28.20171428938605

>  <compound_id>  (92) 
12513

>  <target_id>  (92) 
1

>  <reference_id>  (92) 
68

>  <inspiration_ids>  (92) 
[64, 68]

>  <energy_score>  (92) 
-53.983584615439554

>  <distance_score>  (92) 
5.2663434250101275

>  <path>  (92) 
/opt/xchem-fragalysis-2/maxwin/BulkDock/SCRATCH/511016/C12513-P68/C12513-P68.minimised.mol

>  <scratch_subdir>  (92) 
/opt/xchem-fragalysis-2/maxwin/BulkDock/SCRATCH/511016/C12513-P68

>  <fragmenstein_runtime>  (92) 
5.9581146240234375

>  <fragmenstein_outcome>  (92) 
too moved

>  <fragmenstein_mode>  (92) 
expansion

>  <fragmenstein_error>  (92) 


$$$$
C12514-P64
     RDKit          3D

 39 42  0  0  0  0  0  0  0  0999 V2000
  -10.7380  -25.7646   27.3705 C   0  0  0  0  0  0  0  0  0  0  0  0
  -11.4377  -25.2533   26.3118 C   0  0  0  0  0  0  0  0  0  0  0  0
  -11.9672  -26.3681   25.6741 N   0  0  0  0  0  0  0  0  0  0  0  0
  -13.4903  -26.4721   25.8119 C   0  0  0  0  0  0  0  0  0  0  0  0
  -14.3626  -25.2527   26.0574 C   0  0  0  0  0  0  0  0  0  0  0  0
  -14.5432  -26.0353   24.8106 C   0  0  0  0  0  0  0  0  0  0  0  0
  -11.1092  -27.4460   26.0203 C   0  0  0  0  0  0  0  0  0  0  0  0
  -10.4451  -28.6355   25.0069 C   0  0  0  0  0  0  0  0  0  0  0  0
  -10.5826  -30.2281   25.0752 N   0  0  0  0  0  0  0  0  0  0  0  0
  -10.0160  -31.0262   23.9162 C   0  0  0  0  0  0  0  0  0  0  0  0
  -10.9477  -32.1927   23.3988 C   0  0  0  0  0  0  0  0  0  0  0  0
  -10.3362  -33.5943   23.3553 C   0  0  0  0  0  0  0  0  0  0  0  0
  -10.8708  -34.6192   24.1489 C   0  0  0  0  0  0  0  0  0  0  0  0
  -10.2446  -35.8718   24.2533 C   0  0  0  0  0  0  0  0  0  0  0  0
   -9.0822  -36.1400   23.5072 C   0  0  0  0  0  0  0  0  0  0  0  0
   -8.3288  -37.3051   23.5601 N   0  0  0  0  0  0  0  0  0  0  0  0
   -7.3410  -37.2209   22.6989 C   0  0  0  0  0  0  0  0  0  0  0  0
   -7.2400  -35.7728   21.7935 S   0  0  0  0  0  0  0  0  0  0  0  0
   -8.6161  -35.1556   22.6326 C   0  0  0  0  0  0  0  0  0  0  0  0
   -9.2255  -33.8827   22.5421 C   0  0  0  0  0  0  0  0  0  0  0  0
  -10.5644  -27.1053   27.1932 N   0  0  0  0  0  0  0  0  0  0  0  0
  -10.3150  -25.2411   28.2183 H   0  0  0  0  0  0  0  0  0  0  0  0
  -11.7653  -24.2483   26.0877 H   0  0  0  0  0  0  0  0  0  0  0  0
  -13.7434  -27.2828   26.4899 H   0  0  0  0  0  0  0  0  0  0  0  0
  -15.1279  -25.3318   26.8208 H   0  0  0  0  0  0  0  0  0  0  0  0
  -13.9612  -24.2564   25.9222 H   0  0  0  0  0  0  0  0  0  0  0  0
  -15.4697  -26.5959   24.7368 H   0  0  0  0  0  0  0  0  0  0  0  0
  -14.3089  -25.4983   23.9067 H   0  0  0  0  0  0  0  0  0  0  0  0
  -10.6438  -28.2788   24.0229 H   0  0  0  0  0  0  0  0  0  0  0  0
   -9.3927  -28.5148   25.2483 H   0  0  0  0  0  0  0  0  0  0  0  0
  -10.0681  -30.5689   25.8810 H   0  0  0  0  0  0  0  0  0  0  0  0
   -9.7203  -30.3749   23.0861 H   0  0  0  0  0  0  0  0  0  0  0  0
   -9.0869  -31.4709   24.2706 H   0  0  0  0  0  0  0  0  0  0  0  0
  -11.8552  -32.2232   24.0151 H   0  0  0  0  0  0  0  0  0  0  0  0
  -11.2889  -31.9509   22.3841 H   0  0  0  0  0  0  0  0  0  0  0  0
  -11.7574  -34.4349   24.7527 H   0  0  0  0  0  0  0  0  0  0  0  0
  -10.6410  -36.6316   24.9194 H   0  0  0  0  0  0  0  0  0  0  0  0
   -6.6283  -38.0227   22.5575 H   0  0  0  0  0  0  0  0  0  0  0  0
   -8.7991  -33.1211   21.8917 H   0  0  0  0  0  0  0  0  0  0  0  0
  1  2  2  0
  2  3  1  0
  3  4  1  0
  4  5  1  0
  5  6  1  0
  3  7  1  0
  7  8  1  0
  8  9  1  0
  9 10  1  0
 10 11  1  0
 11 12  1  0
 12 13  2  0
 13 14  1  0
 14 15  2  0
 15 16  1  0
 16 17  2  0
 17 18  1  0
 18 19  1  0
 19 20  2  0
  7 21  2  0
 21  1  1  0
  6  4  1  0
 20 12  1  0
 19 15  1  0
  1 22  1  0
  2 23  1  0
  4 24  1  0
  5 25  1  0
  5 26  1  0
  6 27  1  0
  6 28  1  0
  8 29  1  0
  8 30  1  0
  9 31  1  0
 10 32  1  0
 10 33  1  0
 11 34  1  0
 11 35  1  0
 13 36  1  0
 14 37  1  0
 17 38  1  0
 20 39  1  0
M  END
>  <Energy>  (93) 
136.3634377165175

>  <compound_id>  (93) 
12514

>  <target_id>  (93) 
1

>  <reference_id>  (93) 
64

>  <inspiration_ids>  (93) 
[64, 68]

>  <energy_score>  (93) 
2.74647733425644

>  <distance_score>  (93) 
1.4755913184170717

>  <path>  (93) 
/opt/xchem-fragalysis-2/maxwin/BulkDock/SCRATCH/511016/C12514-P64/C12514-P64.minimised.mol

>  <scratch_subdir>  (93) 
/opt/xchem-fragalysis-2/maxwin/BulkDock/SCRATCH/511016/C12514-P64

>  <fragmenstein_runtime>  (93) 
2.7190897464752197

>  <fragmenstein_outcome>  (93) 
too moved

>  <fragmenstein_mode>  (93) 
expansion

>  <fragmenstein_error>  (93) 


$$$$
C12514-P68
     RDKit          3D

 39 42  0  0  0  0  0  0  0  0999 V2000
  -10.4537  -27.1794   26.8292 C   0  0  0  0  0  0  0  0  0  0  0  0
  -10.6715  -25.8876   26.4083 C   0  0  0  0  0  0  0  0  0  0  0  0
  -11.6294  -26.2756   25.5495 N   0  0  0  0  0  0  0  0  0  0  0  0
  -13.1382  -26.1372   25.8861 C   0  0  0  0  0  0  0  0  0  0  0  0
  -14.0286  -25.1228   25.1873 C   0  0  0  0  0  0  0  0  0  0  0  0
  -14.3348  -26.5706   25.0709 C   0  0  0  0  0  0  0  0  0  0  0  0
  -10.9483  -27.2766   24.7783 C   0  0  0  0  0  0  0  0  0  0  0  0
  -10.4067  -27.2081   22.8916 C   0  0  0  0  0  0  0  0  0  0  0  0
  -10.4962  -28.4730   21.4492 N   0  0  0  0  0  0  0  0  0  0  0  0
  -10.7827  -30.3142   21.4521 C   0  0  0  0  0  0  0  0  0  0  0  0
  -12.0303  -31.2408   21.1476 C   0  0  0  0  0  0  0  0  0  0  0  0
  -11.7644  -32.6811   21.6554 C   0  0  0  0  0  0  0  0  0  0  0  0
  -11.9447  -33.0038   23.0039 C   0  0  0  0  0  0  0  0  0  0  0  0
  -11.5165  -34.2170   23.5623 C   0  0  0  0  0  0  0  0  0  0  0  0
  -10.9358  -35.1893   22.7379 C   0  0  0  0  0  0  0  0  0  0  0  0
  -10.4324  -36.4094   23.1577 N   0  0  0  0  0  0  0  0  0  0  0  0
  -10.0021  -37.0818   22.1166 C   0  0  0  0  0  0  0  0  0  0  0  0
  -10.2215  -36.3354   20.5932 S   0  0  0  0  0  0  0  0  0  0  0  0
  -10.8641  -34.9309   21.3676 C   0  0  0  0  0  0  0  0  0  0  0  0
  -11.2797  -33.6922   20.8141 C   0  0  0  0  0  0  0  0  0  0  0  0
  -10.2706  -27.9007   25.7049 N   0  0  0  0  0  0  0  0  0  0  0  0
  -10.1584  -27.5753   27.7898 H   0  0  0  0  0  0  0  0  0  0  0  0
  -10.6124  -24.9023   26.8517 H   0  0  0  0  0  0  0  0  0  0  0  0
  -13.2814  -26.3008   26.9389 H   0  0  0  0  0  0  0  0  0  0  0  0
  -13.6334  -24.5376   24.3843 H   0  0  0  0  0  0  0  0  0  0  0  0
  -14.8892  -24.5580   25.4902 H   0  0  0  0  0  0  0  0  0  0  0  0
  -15.2073  -26.9409   25.5942 H   0  0  0  0  0  0  0  0  0  0  0  0
  -14.3093  -26.9573   24.0742 H   0  0  0  0  0  0  0  0  0  0  0  0
  -10.3395  -26.3948   22.1621 H   0  0  0  0  0  0  0  0  0  0  0  0
   -9.1948  -27.4733   23.2685 H   0  0  0  0  0  0  0  0  0  0  0  0
   -9.5481  -28.7571   21.8237 H   0  0  0  0  0  0  0  0  0  0  0  0
  -10.3010  -30.7328   22.3335 H   0  0  0  0  0  0  0  0  0  0  0  0
  -10.1282  -30.6902   20.6608 H   0  0  0  0  0  0  0  0  0  0  0  0
  -12.9518  -30.9156   21.6157 H   0  0  0  0  0  0  0  0  0  0  0  0
  -12.2200  -31.2566   20.0676 H   0  0  0  0  0  0  0  0  0  0  0  0
  -12.4232  -32.3055   23.6704 H   0  0  0  0  0  0  0  0  0  0  0  0
  -11.6225  -34.4080   24.6251 H   0  0  0  0  0  0  0  0  0  0  0  0
   -9.5538  -38.0626   22.2097 H   0  0  0  0  0  0  0  0  0  0  0  0
  -11.2167  -33.5271   19.7443 H   0  0  0  0  0  0  0  0  0  0  0  0
  1  2  2  0
  2  3  1  0
  3  4  1  0
  4  5  1  0
  5  6  1  0
  3  7  1  0
  7  8  1  0
  8  9  1  0
  9 10  1  0
 10 11  1  0
 11 12  1  0
 12 13  2  0
 13 14  1  0
 14 15  2  0
 15 16  1  0
 16 17  2  0
 17 18  1  0
 18 19  1  0
 19 20  2  0
  7 21  2  0
 21  1  1  0
  6  4  1  0
 20 12  1  0
 19 15  1  0
  1 22  1  0
  2 23  1  0
  4 24  1  0
  5 25  1  0
  5 26  1  0
  6 27  1  0
  6 28  1  0
  8 29  1  0
  8 30  1  0
  9 31  1  0
 10 32  1  0
 10 33  1  0
 11 34  1  0
 11 35  1  0
 13 36  1  0
 14 37  1  0
 17 38  1  0
 20 39  1  0
M  END
>  <Energy>  (94) 
349.46338429387475

>  <compound_id>  (94) 
12514

>  <target_id>  (94) 
1

>  <reference_id>  (94) 
68

>  <inspiration_ids>  (94) 
[64, 68]

>  <energy_score>  (94) 
191.15077533599208

>  <distance_score>  (94) 
2.827338689545811

>  <path>  (94) 
/opt/xchem-fragalysis-2/maxwin/BulkDock/SCRATCH/511016/C12514-P68/C12514-P68.minimised.mol

>  <scratch_subdir>  (94) 
/opt/xchem-fragalysis-2/maxwin/BulkDock/SCRATCH/511016/C12514-P68

>  <fragmenstein_runtime>  (94) 
8.86695671081543

>  <fragmenstein_outcome>  (94) 
too moved

>  <fragmenstein_mode>  (94) 
expansion

>  <fragmenstein_error>  (94) 


$$$$
C12515-P64
     RDKit          3D

 44 46  0  0  0  0  0  0  0  0999 V2000
  -11.4356  -32.0334   24.1181 C   0  0  0  0  0  0  0  0  0  0  0  0
  -10.2543  -31.4260   23.3319 C   0  0  0  0  0  0  0  0  0  0  0  0
   -9.7789  -29.9802   23.6253 N   0  0  0  0  0  0  0  0  0  0  0  0
  -10.0706  -29.3037   24.9624 C   0  0  0  0  0  0  0  0  0  0  0  0
  -10.9974  -27.8845   25.6793 C   0  0  0  0  0  0  0  0  0  0  0  0
  -11.5501  -28.0403   26.9413 N   0  0  0  0  0  0  0  0  0  0  0  0
  -10.9203  -27.1373   27.7695 C   0  0  0  0  0  0  0  0  0  0  0  0
  -10.2804  -26.2265   26.9944 C   0  0  0  0  0  0  0  0  0  0  0  0
  -10.9018  -26.4531   25.7467 N   0  0  0  0  0  0  0  0  0  0  0  0
  -12.0914  -25.5200   25.6086 C   0  0  0  0  0  0  0  0  0  0  0  0
  -13.2272  -26.1924   24.8517 C   0  0  0  0  0  0  0  0  0  0  0  0
  -11.5666  -24.1661   25.1311 C   0  0  0  0  0  0  0  0  0  0  0  0
  -12.8478  -25.1331   26.8926 C   0  0  0  0  0  0  0  0  0  0  0  0
   -9.2120  -32.5181   22.9779 C   0  0  0  0  0  0  0  0  0  0  0  0
   -9.4401  -33.8856   23.2736 C   0  0  0  0  0  0  0  0  0  0  0  0
   -8.6405  -34.9237   22.7806 C   0  0  0  0  0  0  0  0  0  0  0  0
   -7.5543  -34.6113   21.9572 C   0  0  0  0  0  0  0  0  0  0  0  0
   -6.6722  -35.5353   21.4221 N   0  0  0  0  0  0  0  0  0  0  0  0
   -5.7714  -34.8925   20.7157 C   0  0  0  0  0  0  0  0  0  0  0  0
   -5.9589  -33.1954   20.5866 S   0  0  0  0  0  0  0  0  0  0  0  0
   -7.3199  -33.2697   21.6424 C   0  0  0  0  0  0  0  0  0  0  0  0
   -8.1268  -32.2177   22.1389 C   0  0  0  0  0  0  0  0  0  0  0  0
  -11.2058  -32.1564   25.1752 H   0  0  0  0  0  0  0  0  0  0  0  0
  -11.7590  -32.9995   23.7189 H   0  0  0  0  0  0  0  0  0  0  0  0
  -12.3520  -31.4739   24.0042 H   0  0  0  0  0  0  0  0  0  0  0  0
  -10.6840  -31.3151   22.3213 H   0  0  0  0  0  0  0  0  0  0  0  0
  -10.3375  -29.4318   22.9696 H   0  0  0  0  0  0  0  0  0  0  0  0
  -10.4074  -30.1542   25.5600 H   0  0  0  0  0  0  0  0  0  0  0  0
   -9.0553  -29.0475   25.2645 H   0  0  0  0  0  0  0  0  0  0  0  0
  -10.9508  -27.1770   28.8469 H   0  0  0  0  0  0  0  0  0  0  0  0
   -9.8123  -25.2895   27.2590 H   0  0  0  0  0  0  0  0  0  0  0  0
  -13.9314  -25.4875   24.3973 H   0  0  0  0  0  0  0  0  0  0  0  0
  -13.8470  -26.8114   25.5082 H   0  0  0  0  0  0  0  0  0  0  0  0
  -12.7980  -26.8745   24.1370 H   0  0  0  0  0  0  0  0  0  0  0  0
  -11.1265  -23.6478   25.9876 H   0  0  0  0  0  0  0  0  0  0  0  0
  -10.7706  -24.2448   24.3913 H   0  0  0  0  0  0  0  0  0  0  0  0
  -12.3617  -23.5119   24.7559 H   0  0  0  0  0  0  0  0  0  0  0  0
  -12.2379  -24.6621   27.6696 H   0  0  0  0  0  0  0  0  0  0  0  0
  -13.6495  -24.4401   26.6388 H   0  0  0  0  0  0  0  0  0  0  0  0
  -13.3353  -26.0276   27.2693 H   0  0  0  0  0  0  0  0  0  0  0  0
  -10.2556  -34.2125   23.9099 H   0  0  0  0  0  0  0  0  0  0  0  0
   -8.8449  -35.9576   23.0357 H   0  0  0  0  0  0  0  0  0  0  0  0
   -4.9549  -35.4008   20.2215 H   0  0  0  0  0  0  0  0  0  0  0  0
   -7.9193  -31.1901   21.8477 H   0  0  0  0  0  0  0  0  0  0  0  0
  1  2  1  0
  2  3  1  0
  3  4  1  0
  4  5  1  0
  5  6  2  0
  6  7  1  0
  7  8  2  0
  8  9  1  0
  9 10  1  0
 10 11  1  0
 10 12  1  0
 10 13  1  0
  2 14  1  0
 14 15  2  0
 15 16  1  0
 16 17  2  0
 17 18  1  0
 18 19  2  0
 19 20  1  0
 20 21  1  0
 21 22  2  0
  9  5  1  0
 22 14  1  0
 21 17  1  0
  1 23  1  0
  1 24  1  0
  1 25  1  0
  2 26  1  0
  3 27  1  0
  4 28  1  0
  4 29  1  0
  7 30  1  0
  8 31  1  0
 11 32  1  0
 11 33  1  0
 11 34  1  0
 12 35  1  0
 12 36  1  0
 12 37  1  0
 13 38  1  0
 13 39  1  0
 13 40  1  0
 15 41  1  0
 16 42  1  0
 19 43  1  0
 22 44  1  0
M  END
>  <Energy>  (95) 
200.28302174096487

>  <compound_id>  (95) 
12515

>  <target_id>  (95) 
1

>  <reference_id>  (95) 
64

>  <inspiration_ids>  (95) 
[64, 68]

>  <energy_score>  (95) 
53.90235817755473

>  <distance_score>  (95) 
2.7557137127114038

>  <path>  (95) 
/opt/xchem-fragalysis-2/maxwin/BulkDock/SCRATCH/511016/C12515-P64/C12515-P64.minimised.mol

>  <scratch_subdir>  (95) 
/opt/xchem-fragalysis-2/maxwin/BulkDock/SCRATCH/511016/C12515-P64

>  <fragmenstein_runtime>  (95) 
8.052000761032104

>  <fragmenstein_outcome>  (95) 
too moved

>  <fragmenstein_mode>  (95) 
expansion

>  <fragmenstein_error>  (95) 


$$$$
C12515-P68
     RDKit          3D

 44 46  0  0  0  0  0  0  0  0999 V2000
  -13.2937  -32.5473   25.3070 C   0  0  0  0  0  0  0  0  0  0  0  0
  -12.6127  -32.3012   23.9437 C   0  0  0  0  0  0  0  0  0  0  0  0
  -12.0581  -30.7412   23.7233 N   0  0  0  0  0  0  0  0  0  0  0  0
  -12.2693  -28.9642   25.0638 C   0  0  0  0  0  0  0  0  0  0  0  0
  -11.7507  -27.4170   25.8949 C   0  0  0  0  0  0  0  0  0  0  0  0
  -10.5480  -27.1663   26.3842 N   0  0  0  0  0  0  0  0  0  0  0  0
  -10.4319  -25.8083   26.4301 C   0  0  0  0  0  0  0  0  0  0  0  0
  -11.6207  -25.2112   26.2008 C   0  0  0  0  0  0  0  0  0  0  0  0
  -12.4875  -26.1929   25.8105 N   0  0  0  0  0  0  0  0  0  0  0  0
  -13.8698  -25.8952   25.3699 C   0  0  0  0  0  0  0  0  0  0  0  0
  -14.5973  -26.6769   26.3479 C   0  0  0  0  0  0  0  0  0  0  0  0
  -14.7336  -26.5035   24.2789 C   0  0  0  0  0  0  0  0  0  0  0  0
  -14.1182  -24.3828   25.2014 C   0  0  0  0  0  0  0  0  0  0  0  0
  -11.5855  -33.3879   23.5798 C   0  0  0  0  0  0  0  0  0  0  0  0
  -10.7670  -33.9581   24.5595 C   0  0  0  0  0  0  0  0  0  0  0  0
   -9.8788  -35.0094   24.3068 C   0  0  0  0  0  0  0  0  0  0  0  0
   -9.8416  -35.5747   23.0283 C   0  0  0  0  0  0  0  0  0  0  0  0
   -9.0480  -36.6408   22.6429 N   0  0  0  0  0  0  0  0  0  0  0  0
   -9.3112  -36.9470   21.3959 C   0  0  0  0  0  0  0  0  0  0  0  0
  -10.5165  -36.0084   20.6236 S   0  0  0  0  0  0  0  0  0  0  0  0
  -10.6810  -35.0455   22.0451 C   0  0  0  0  0  0  0  0  0  0  0  0
  -11.5217  -33.9304   22.2839 C   0  0  0  0  0  0  0  0  0  0  0  0
  -14.2853  -32.0815   25.3475 H   0  0  0  0  0  0  0  0  0  0  0  0
  -12.7112  -32.1130   26.1178 H   0  0  0  0  0  0  0  0  0  0  0  0
  -13.4389  -33.6146   25.5049 H   0  0  0  0  0  0  0  0  0  0  0  0
  -13.4090  -32.3966   23.1877 H   0  0  0  0  0  0  0  0  0  0  0  0
  -12.1654  -30.5188   22.7092 H   0  0  0  0  0  0  0  0  0  0  0  0
  -12.8007  -28.0203   24.5946 H   0  0  0  0  0  0  0  0  0  0  0  0
  -11.2420  -28.2894   24.9342 H   0  0  0  0  0  0  0  0  0  0  0  0
   -9.5781  -25.2409   26.7532 H   0  0  0  0  0  0  0  0  0  0  0  0
  -11.8495  -24.1629   26.3452 H   0  0  0  0  0  0  0  0  0  0  0  0
  -15.6383  -26.3180   26.3480 H   0  0  0  0  0  0  0  0  0  0  0  0
  -14.0299  -26.6316   27.2511 H   0  0  0  0  0  0  0  0  0  0  0  0
  -14.6175  -27.7501   26.1362 H   0  0  0  0  0  0  0  0  0  0  0  0
  -15.6526  -25.9363   24.0911 H   0  0  0  0  0  0  0  0  0  0  0  0
  -14.1307  -26.6177   23.4389 H   0  0  0  0  0  0  0  0  0  0  0  0
  -15.1673  -27.4790   24.4516 H   0  0  0  0  0  0  0  0  0  0  0  0
  -13.6348  -23.7510   25.9216 H   0  0  0  0  0  0  0  0  0  0  0  0
  -13.6823  -23.9876   24.2958 H   0  0  0  0  0  0  0  0  0  0  0  0
  -15.1809  -24.1224   25.1759 H   0  0  0  0  0  0  0  0  0  0  0  0
  -10.8175  -33.6002   25.5752 H   0  0  0  0  0  0  0  0  0  0  0  0
   -9.2457  -35.4050   25.0952 H   0  0  0  0  0  0  0  0  0  0  0  0
   -8.8061  -37.7546   20.8826 H   0  0  0  0  0  0  0  0  0  0  0  0
  -12.1560  -33.5531   21.4866 H   0  0  0  0  0  0  0  0  0  0  0  0
  1  2  1  0
  2  3  1  0
  3  4  1  0
  4  5  1  0
  5  6  2  0
  6  7  1  0
  7  8  2  0
  8  9  1  0
  9 10  1  0
 10 11  1  0
 10 12  1  0
 10 13  1  0
  2 14  1  0
 14 15  2  0
 15 16  1  0
 16 17  2  0
 17 18  1  0
 18 19  2  0
 19 20  1  0
 20 21  1  0
 21 22  2  0
  9  5  1  0
 22 14  1  0
 21 17  1  0
  1 23  1  0
  1 24  1  0
  1 25  1  0
  2 26  1  0
  3 27  1  0
  4 28  1  0
  4 29  1  0
  7 30  1  0
  8 31  1  0
 11 32  1  0
 11 33  1  0
 11 34  1  0
 12 35  1  0
 12 36  1  0
 12 37  1  0
 13 38  1  0
 13 39  1  0
 13 40  1  0
 15 41  1  0
 16 42  1  0
 19 43  1  0
 22 44  1  0
M  END
>  <Energy>  (96) 
544.55347786508798

>  <compound_id>  (96) 
12515

>  <target_id>  (96) 
1

>  <reference_id>  (96) 
68

>  <inspiration_ids>  (96) 
[64, 68]

>  <energy_score>  (96) 
398.17281430167145

>  <distance_score>  (96) 
2.1955779684566994

>  <path>  (96) 
/opt/xchem-fragalysis-2/maxwin/BulkDock/SCRATCH/511016/C12515-P68/C12515-P68.minimised.mol

>  <scratch_subdir>  (96) 
/opt/xchem-fragalysis-2/maxwin/BulkDock/SCRATCH/511016/C12515-P68

>  <fragmenstein_runtime>  (96) 
10.667389154434204

>  <fragmenstein_outcome>  (96) 
too moved

>  <fragmenstein_mode>  (96) 
expansion

>  <fragmenstein_error>  (96) 


$$$$
C12516-P64
     RDKit          3D

 40 42  0  0  0  0  0  0  0  0999 V2000
   -9.1154  -29.6506   22.1729 O   0  0  0  0  0  0  0  0  0  0  0  0
   -9.4418  -30.3295   23.0646 C   0  0  0  0  0  0  0  0  0  0  0  0
   -9.3076  -29.8676   24.5283 C   0  0  0  0  0  0  0  0  0  0  0  0
  -10.3501  -28.7799   24.9262 C   0  0  0  0  0  0  0  0  0  0  0  0
  -10.1483  -27.4406   25.6376 C   0  0  0  0  0  0  0  0  0  0  0  0
  -11.0769  -26.7757   26.5396 N   0  0  0  0  0  0  0  0  0  0  0  0
  -10.6528  -26.0319   27.6222 C   0  0  0  0  0  0  0  0  0  0  0  0
  -11.5767  -25.0248   27.7609 C   0  0  0  0  0  0  0  0  0  0  0  0
  -12.6245  -25.2170   26.8966 N   0  0  0  0  0  0  0  0  0  0  0  0
  -12.2835  -26.2516   26.1619 C   0  0  0  0  0  0  0  0  0  0  0  0
  -10.1416  -31.7120   23.0699 N   0  0  0  0  0  0  0  0  0  0  0  0
  -10.6666  -32.4955   21.9866 C   0  0  0  0  0  0  0  0  0  0  0  0
  -11.3909  -33.7584   22.4474 C   0  0  0  0  0  0  0  0  0  0  0  0
  -10.4542  -34.8295   22.9592 C   0  0  0  0  0  0  0  0  0  0  0  0
  -10.6516  -35.4063   24.2161 C   0  0  0  0  0  0  0  0  0  0  0  0
   -9.7850  -36.3965   24.6954 C   0  0  0  0  0  0  0  0  0  0  0  0
   -8.7060  -36.8326   23.9017 C   0  0  0  0  0  0  0  0  0  0  0  0
   -7.7725  -37.7948   24.2508 N   0  0  0  0  0  0  0  0  0  0  0  0
   -6.9481  -37.9826   23.2452 C   0  0  0  0  0  0  0  0  0  0  0  0
   -7.1860  -37.0020   21.8644 S   0  0  0  0  0  0  0  0  0  0  0  0
   -8.5393  -36.2714   22.6362 C   0  0  0  0  0  0  0  0  0  0  0  0
   -9.3981  -35.2773   22.1469 C   0  0  0  0  0  0  0  0  0  0  0  0
   -9.4329  -30.7323   25.1867 H   0  0  0  0  0  0  0  0  0  0  0  0
   -8.2882  -29.5286   24.6832 H   0  0  0  0  0  0  0  0  0  0  0  0
  -10.9284  -29.3718   25.5729 H   0  0  0  0  0  0  0  0  0  0  0  0
  -10.8671  -28.4037   24.0818 H   0  0  0  0  0  0  0  0  0  0  0  0
  -10.1637  -26.7247   24.8247 H   0  0  0  0  0  0  0  0  0  0  0  0
   -9.1993  -27.4705   26.1597 H   0  0  0  0  0  0  0  0  0  0  0  0
   -9.7099  -26.2149   28.1180 H   0  0  0  0  0  0  0  0  0  0  0  0
  -11.5634  -24.2003   28.4638 H   0  0  0  0  0  0  0  0  0  0  0  0
  -12.8372  -26.6247   25.3138 H   0  0  0  0  0  0  0  0  0  0  0  0
  -10.2035  -32.0550   24.0171 H   0  0  0  0  0  0  0  0  0  0  0  0
  -11.3714  -31.8472   21.4536 H   0  0  0  0  0  0  0  0  0  0  0  0
   -9.8458  -32.6896   21.2898 H   0  0  0  0  0  0  0  0  0  0  0  0
  -12.1268  -33.4977   23.2185 H   0  0  0  0  0  0  0  0  0  0  0  0
  -11.9525  -34.1824   21.6057 H   0  0  0  0  0  0  0  0  0  0  0  0
  -11.4821  -35.0929   24.8453 H   0  0  0  0  0  0  0  0  0  0  0  0
   -9.9383  -36.8369   25.6760 H   0  0  0  0  0  0  0  0  0  0  0  0
   -6.1491  -38.7120   23.2843 H   0  0  0  0  0  0  0  0  0  0  0  0
   -9.2340  -34.8696   21.1533 H   0  0  0  0  0  0  0  0  0  0  0  0
  1  2  2  0
  2  3  1  0
  3  4  1  0
  4  5  1  0
  5  6  1  0
  6  7  1  0
  7  8  2  0
  8  9  1  0
  9 10  2  0
  2 11  1  0
 11 12  1  0
 12 13  1  0
 13 14  1  0
 14 15  2  0
 15 16  1  0
 16 17  2  0
 17 18  1  0
 18 19  2  0
 19 20  1  0
 20 21  1  0
 21 22  2  0
 10  6  1  0
 22 14  1  0
 21 17  1  0
  3 23  1  0
  3 24  1  0
  4 25  1  0
  4 26  1  0
  5 27  1  0
  5 28  1  0
  7 29  1  0
  8 30  1  0
 10 31  1  0
 11 32  1  0
 12 33  1  0
 12 34  1  0
 13 35  1  0
 13 36  1  0
 15 37  1  0
 16 38  1  0
 19 39  1  0
 22 40  1  0
M  END
>  <Energy>  (97) 
58.521403200683281

>  <compound_id>  (97) 
12516

>  <target_id>  (97) 
1

>  <reference_id>  (97) 
64

>  <inspiration_ids>  (97) 
[64, 68]

>  <energy_score>  (97) 
17.463367876902964

>  <distance_score>  (97) 
0.8130705127243413

>  <path>  (97) 
/opt/xchem-fragalysis-2/maxwin/BulkDock/SCRATCH/511016/C12516-P64/C12516-P64.minimised.mol

>  <scratch_subdir>  (97) 
/opt/xchem-fragalysis-2/maxwin/BulkDock/SCRATCH/511016/C12516-P64

>  <fragmenstein_runtime>  (97) 
2.583513021469116

>  <fragmenstein_outcome>  (97) 
too contorted

>  <fragmenstein_mode>  (97) 
expansion

>  <fragmenstein_error>  (97) 


$$$$
C12516-P68
     RDKit          3D

 40 42  0  0  0  0  0  0  0  0999 V2000
   -8.0495  -28.9815   22.4374 O   0  0  0  0  0  0  0  0  0  0  0  0
   -8.6867  -29.5035   23.2973 C   0  0  0  0  0  0  0  0  0  0  0  0
   -9.0754  -28.1253   24.8121 C   0  0  0  0  0  0  0  0  0  0  0  0
  -10.4511  -27.3213   25.5462 C   0  0  0  0  0  0  0  0  0  0  0  0
  -10.5270  -25.8945   26.1298 C   0  0  0  0  0  0  0  0  0  0  0  0
  -11.9123  -25.3932   26.1728 N   0  0  0  0  0  0  0  0  0  0  0  0
  -12.2575  -24.0626   26.1898 C   0  0  0  0  0  0  0  0  0  0  0  0
  -13.4753  -24.0335   25.5344 C   0  0  0  0  0  0  0  0  0  0  0  0
  -14.0136  -25.2984   25.4793 N   0  0  0  0  0  0  0  0  0  0  0  0
  -13.0764  -26.0769   25.9569 C   0  0  0  0  0  0  0  0  0  0  0  0
   -9.4760  -31.1794   23.3644 N   0  0  0  0  0  0  0  0  0  0  0  0
   -9.6366  -32.3770   22.1982 C   0  0  0  0  0  0  0  0  0  0  0  0
  -10.6786  -33.4164   22.6703 C   0  0  0  0  0  0  0  0  0  0  0  0
  -10.0515  -34.6515   23.2639 C   0  0  0  0  0  0  0  0  0  0  0  0
  -10.0916  -34.8730   24.6395 C   0  0  0  0  0  0  0  0  0  0  0  0
   -9.5075  -36.0139   25.1957 C   0  0  0  0  0  0  0  0  0  0  0  0
   -8.8519  -36.9429   24.3674 C   0  0  0  0  0  0  0  0  0  0  0  0
   -8.2418  -38.1045   24.7893 N   0  0  0  0  0  0  0  0  0  0  0  0
   -7.6756  -38.7061   23.7698 C   0  0  0  0  0  0  0  0  0  0  0  0
   -7.8885  -37.9613   22.2421 S   0  0  0  0  0  0  0  0  0  0  0  0
   -8.7958  -36.7028   22.9957 C   0  0  0  0  0  0  0  0  0  0  0  0
   -9.4086  -35.5785   22.4220 C   0  0  0  0  0  0  0  0  0  0  0  0
   -9.4508  -28.5987   25.7568 H   0  0  0  0  0  0  0  0  0  0  0  0
   -8.0215  -28.3842   25.2323 H   0  0  0  0  0  0  0  0  0  0  0  0
  -10.7972  -27.8862   26.4399 H   0  0  0  0  0  0  0  0  0  0  0  0
  -11.2624  -27.4868   24.8862 H   0  0  0  0  0  0  0  0  0  0  0  0
  -10.1551  -25.8863   27.1481 H   0  0  0  0  0  0  0  0  0  0  0  0
   -9.9400  -25.1366   25.6176 H   0  0  0  0  0  0  0  0  0  0  0  0
  -11.5808  -23.2842   26.5024 H   0  0  0  0  0  0  0  0  0  0  0  0
  -14.0130  -23.1634   25.1759 H   0  0  0  0  0  0  0  0  0  0  0  0
  -13.1625  -27.1412   26.0171 H   0  0  0  0  0  0  0  0  0  0  0  0
   -9.8532  -31.3554   24.2241 H   0  0  0  0  0  0  0  0  0  0  0  0
  -10.1756  -31.8155   21.4139 H   0  0  0  0  0  0  0  0  0  0  0  0
   -8.8296  -32.8821   21.6927 H   0  0  0  0  0  0  0  0  0  0  0  0
  -11.3956  -32.9707   23.3682 H   0  0  0  0  0  0  0  0  0  0  0  0
  -11.2720  -33.7379   21.8035 H   0  0  0  0  0  0  0  0  0  0  0  0
  -10.5718  -34.1566   25.2992 H   0  0  0  0  0  0  0  0  0  0  0  0
   -9.5262  -36.1902   26.2657 H   0  0  0  0  0  0  0  0  0  0  0  0
   -7.1135  -39.6232   23.8926 H   0  0  0  0  0  0  0  0  0  0  0  0
   -9.3703  -35.4304   21.3476 H   0  0  0  0  0  0  0  0  0  0  0  0
  1  2  2  0
  2  3  1  0
  3  4  1  0
  4  5  1  0
  5  6  1  0
  6  7  1  0
  7  8  2  0
  8  9  1  0
  9 10  2  0
  2 11  1  0
 11 12  1  0
 12 13  1  0
 13 14  1  0
 14 15  2  0
 15 16  1  0
 16 17  2  0
 17 18  1  0
 18 19  2  0
 19 20  1  0
 20 21  1  0
 21 22  2  0
 10  6  1  0
 22 14  1  0
 21 17  1  0
  3 23  1  0
  3 24  1  0
  4 25  1  0
  4 26  1  0
  5 27  1  0
  5 28  1  0
  7 29  1  0
  8 30  1  0
 10 31  1  0
 11 32  1  0
 12 33  1  0
 12 34  1  0
 13 35  1  0
 13 36  1  0
 15 37  1  0
 16 38  1  0
 19 39  1  0
 22 40  1  0
M  END
>  <Energy>  (98) 
289.07444765760835

>  <compound_id>  (98) 
12516

>  <target_id>  (98) 
1

>  <reference_id>  (98) 
68

>  <inspiration_ids>  (98) 
[64, 68]

>  <energy_score>  (98) 
217.87798866068465

>  <distance_score>  (98) 
1.8522768250986723

>  <path>  (98) 
/opt/xchem-fragalysis-2/maxwin/BulkDock/SCRATCH/511016/C12516-P68/C12516-P68.minimised.mol

>  <scratch_subdir>  (98) 
/opt/xchem-fragalysis-2/maxwin/BulkDock/SCRATCH/511016/C12516-P68

>  <fragmenstein_runtime>  (98) 
6.066382884979248

>  <fragmenstein_outcome>  (98) 
too moved

>  <fragmenstein_mode>  (98) 
expansion

>  <fragmenstein_error>  (98) 


$$$$
C12519-P64
     RDKit          3D

 41 43  0  0  0  0  0  0  0  0999 V2000
  -15.6272  -24.3522   25.0305 C   0  0  0  0  0  0  0  0  0  0  0  0
  -14.8226  -25.2882   25.7674 N   0  0  0  0  0  0  0  0  0  0  0  0
  -15.3013  -26.3837   26.4202 C   0  0  0  0  0  0  0  0  0  0  0  0
  -14.3276  -27.0877   26.9454 N   0  0  0  0  0  0  0  0  0  0  0  0
  -13.1721  -26.4121   26.6193 C   0  0  0  0  0  0  0  0  0  0  0  0
  -11.8770  -26.9243   27.1221 C   0  0  0  0  0  0  0  0  0  0  0  0
  -10.7002  -26.8388   26.1783 C   0  0  0  0  0  0  0  0  0  0  0  0
   -9.5558  -26.9416   27.0017 O   0  0  0  0  0  0  0  0  0  0  0  0
  -10.8086  -27.7674   24.9043 C   0  0  0  0  0  0  0  0  0  0  0  0
  -11.7023  -27.4481   24.1582 O   0  0  0  0  0  0  0  0  0  0  0  0
   -9.8798  -28.9299   24.8638 N   0  0  0  0  0  0  0  0  0  0  0  0
   -9.6943  -30.0115   23.8361 C   0  0  0  0  0  0  0  0  0  0  0  0
  -10.3773  -31.3693   24.1302 C   0  0  0  0  0  0  0  0  0  0  0  0
   -9.9540  -32.6332   23.3902 C   0  0  0  0  0  0  0  0  0  0  0  0
  -10.6958  -33.8021   23.6434 C   0  0  0  0  0  0  0  0  0  0  0  0
  -10.2880  -35.0543   23.1710 C   0  0  0  0  0  0  0  0  0  0  0  0
   -9.1150  -35.1546   22.4049 C   0  0  0  0  0  0  0  0  0  0  0  0
   -8.5557  -36.3326   21.9324 N   0  0  0  0  0  0  0  0  0  0  0  0
   -7.4639  -36.0515   21.2594 C   0  0  0  0  0  0  0  0  0  0  0  0
   -7.0556  -34.3965   21.1211 S   0  0  0  0  0  0  0  0  0  0  0  0
   -8.4227  -33.9833   22.0882 C   0  0  0  0  0  0  0  0  0  0  0  0
   -8.8305  -32.7141   22.5564 C   0  0  0  0  0  0  0  0  0  0  0  0
  -13.4713  -25.2517   25.9387 C   0  0  0  0  0  0  0  0  0  0  0  0
  -14.9977  -23.5525   24.6334 H   0  0  0  0  0  0  0  0  0  0  0  0
  -16.1090  -24.8984   24.2172 H   0  0  0  0  0  0  0  0  0  0  0  0
  -16.3891  -23.9416   25.6954 H   0  0  0  0  0  0  0  0  0  0  0  0
  -16.3550  -26.6217   26.4808 H   0  0  0  0  0  0  0  0  0  0  0  0
  -11.9898  -27.9443   27.5006 H   0  0  0  0  0  0  0  0  0  0  0  0
  -11.6148  -26.3203   27.9978 H   0  0  0  0  0  0  0  0  0  0  0  0
  -10.7084  -25.8207   25.7691 H   0  0  0  0  0  0  0  0  0  0  0  0
   -9.5492  -26.1981   27.6291 H   0  0  0  0  0  0  0  0  0  0  0  0
   -9.2059  -28.8365   25.5921 H   0  0  0  0  0  0  0  0  0  0  0  0
   -8.6188  -30.1971   23.8941 H   0  0  0  0  0  0  0  0  0  0  0  0
   -9.7979  -29.6407   22.8116 H   0  0  0  0  0  0  0  0  0  0  0  0
  -11.4565  -31.3204   23.9943 H   0  0  0  0  0  0  0  0  0  0  0  0
  -10.2394  -31.5508   25.1995 H   0  0  0  0  0  0  0  0  0  0  0  0
  -11.5839  -33.7533   24.2723 H   0  0  0  0  0  0  0  0  0  0  0  0
  -10.8497  -35.9496   23.4157 H   0  0  0  0  0  0  0  0  0  0  0  0
   -6.8539  -36.8194   20.8027 H   0  0  0  0  0  0  0  0  0  0  0  0
   -8.2305  -31.8397   22.3197 H   0  0  0  0  0  0  0  0  0  0  0  0
  -12.8561  -24.4430   25.5666 H   0  0  0  0  0  0  0  0  0  0  0  0
  1  2  1  0
  2  3  1  0
  3  4  2  0
  4  5  1  0
  5  6  1  0
  6  7  1  0
  7  8  1  0
  7  9  1  0
  9 10  2  0
  9 11  1  0
 11 12  1  0
 12 13  1  0
 13 14  1  0
 14 15  2  0
 15 16  1  0
 16 17  2  0
 17 18  1  0
 18 19  2  0
 19 20  1  0
 20 21  1  0
 21 22  2  0
  5 23  2  0
 23  2  1  0
 22 14  1  0
 21 17  1  0
  1 24  1  0
  1 25  1  0
  1 26  1  0
  3 27  1  0
  6 28  1  0
  6 29  1  0
  7 30  1  0
  8 31  1  0
 11 32  1  0
 12 33  1  0
 12 34  1  0
 13 35  1  0
 13 36  1  0
 15 37  1  0
 16 38  1  0
 19 39  1  0
 22 40  1  0
 23 41  1  0
M  END
>  <Energy>  (99) 
79.320119295655715

>  <compound_id>  (99) 
12519

>  <target_id>  (99) 
1

>  <reference_id>  (99) 
64

>  <inspiration_ids>  (99) 
[64, 68]

>  <energy_score>  (99) 
-44.46092121721131

>  <distance_score>  (99) 
2.9557361884402833

>  <path>  (99) 
/opt/xchem-fragalysis-2/maxwin/BulkDock/SCRATCH/511016/C12519-P64/C12519-P64.minimised.mol

>  <scratch_subdir>  (99) 
/opt/xchem-fragalysis-2/maxwin/BulkDock/SCRATCH/511016/C12519-P64

>  <fragmenstein_runtime>  (99) 
4.969839334487915

>  <fragmenstein_outcome>  (99) 
too moved

>  <fragmenstein_mode>  (99) 
expansion

>  <fragmenstein_error>  (99) 


$$$$
C12519-P68
     RDKit          3D

 41 43  0  0  0  0  0  0  0  0999 V2000
  -16.1292  -25.0747   25.0493 C   0  0  0  0  0  0  0  0  0  0  0  0
  -14.7543  -25.5127   25.2190 N   0  0  0  0  0  0  0  0  0  0  0  0
  -14.4608  -26.8220   25.3068 C   0  0  0  0  0  0  0  0  0  0  0  0
  -13.1868  -26.9991   25.5296 N   0  0  0  0  0  0  0  0  0  0  0  0
  -12.6358  -25.7910   25.8767 C   0  0  0  0  0  0  0  0  0  0  0  0
  -11.0748  -25.7500   26.1868 C   0  0  0  0  0  0  0  0  0  0  0  0
  -10.5411  -27.0720   26.7233 C   0  0  0  0  0  0  0  0  0  0  0  0
  -10.3326  -27.1714   28.1290 O   0  0  0  0  0  0  0  0  0  0  0  0
   -9.9099  -28.3527   26.1962 C   0  0  0  0  0  0  0  0  0  0  0  0
  -10.0493  -29.2731   27.0209 O   0  0  0  0  0  0  0  0  0  0  0  0
   -9.2683  -28.3716   24.6069 N   0  0  0  0  0  0  0  0  0  0  0  0
   -8.6619  -29.8872   23.4359 C   0  0  0  0  0  0  0  0  0  0  0  0
  -10.0392  -31.2290   22.8249 C   0  0  0  0  0  0  0  0  0  0  0  0
  -10.0784  -32.8033   22.9513 C   0  0  0  0  0  0  0  0  0  0  0  0
  -10.2794  -33.4845   24.1504 C   0  0  0  0  0  0  0  0  0  0  0  0
  -10.2057  -34.8790   24.2982 C   0  0  0  0  0  0  0  0  0  0  0  0
  -10.0696  -35.6750   23.1631 C   0  0  0  0  0  0  0  0  0  0  0  0
   -9.9634  -37.0533   23.1457 N   0  0  0  0  0  0  0  0  0  0  0  0
   -9.9412  -37.4668   21.9020 C   0  0  0  0  0  0  0  0  0  0  0  0
  -10.1147  -36.2599   20.7036 S   0  0  0  0  0  0  0  0  0  0  0  0
  -10.1008  -35.0386   21.9238 C   0  0  0  0  0  0  0  0  0  0  0  0
  -10.1361  -33.6214   21.8102 C   0  0  0  0  0  0  0  0  0  0  0  0
  -13.5975  -24.8305   25.5538 C   0  0  0  0  0  0  0  0  0  0  0  0
  -16.5238  -25.4989   24.1220 H   0  0  0  0  0  0  0  0  0  0  0  0
  -16.7388  -25.4910   25.8574 H   0  0  0  0  0  0  0  0  0  0  0  0
  -16.1827  -23.9841   25.0553 H   0  0  0  0  0  0  0  0  0  0  0  0
  -15.2075  -27.5920   25.1817 H   0  0  0  0  0  0  0  0  0  0  0  0
  -10.8224  -24.8611   26.7750 H   0  0  0  0  0  0  0  0  0  0  0  0
  -10.5069  -25.5661   25.3151 H   0  0  0  0  0  0  0  0  0  0  0  0
  -11.4972  -27.5689   26.6983 H   0  0  0  0  0  0  0  0  0  0  0  0
  -10.1310  -28.1159   28.2692 H   0  0  0  0  0  0  0  0  0  0  0  0
   -9.3679  -27.5467   24.2171 H   0  0  0  0  0  0  0  0  0  0  0  0
   -7.8336  -30.3833   23.9010 H   0  0  0  0  0  0  0  0  0  0  0  0
   -8.3194  -29.2434   22.6340 H   0  0  0  0  0  0  0  0  0  0  0  0
  -10.1563  -31.0015   21.7335 H   0  0  0  0  0  0  0  0  0  0  0  0
  -11.1104  -31.0819   22.9443 H   0  0  0  0  0  0  0  0  0  0  0  0
  -10.5724  -32.9635   25.0397 H   0  0  0  0  0  0  0  0  0  0  0  0
  -10.2848  -35.3387   25.2770 H   0  0  0  0  0  0  0  0  0  0  0  0
   -9.8485  -38.5139   21.6452 H   0  0  0  0  0  0  0  0  0  0  0  0
  -10.2238  -33.1787   20.8284 H   0  0  0  0  0  0  0  0  0  0  0  0
  -13.5440  -23.7475   25.5282 H   0  0  0  0  0  0  0  0  0  0  0  0
  1  2  1  0
  2  3  1  0
  3  4  2  0
  4  5  1  0
  5  6  1  0
  6  7  1  0
  7  8  1  0
  7  9  1  0
  9 10  2  0
  9 11  1  0
 11 12  1  0
 12 13  1  0
 13 14  1  0
 14 15  2  0
 15 16  1  0
 16 17  2  0
 17 18  1  0
 18 19  2  0
 19 20  1  0
 20 21  1  0
 21 22  2  0
  5 23  2  0
 23  2  1  0
 22 14  1  0
 21 17  1  0
  1 24  1  0
  1 25  1  0
  1 26  1  0
  3 27  1  0
  6 28  1  0
  6 29  1  0
  7 30  1  0
  8 31  1  0
 11 32  1  0
 12 33  1  0
 12 34  1  0
 13 35  1  0
 13 36  1  0
 15 37  1  0
 16 38  1  0
 19 39  1  0
 22 40  1  0
 23 41  1  0
M  END
>  <Energy>  (100) 
298.92172206800899

>  <compound_id>  (100) 
12519

>  <target_id>  (100) 
1

>  <reference_id>  (100) 
68

>  <inspiration_ids>  (100) 
[64, 68]

>  <energy_score>  (100) 
175.1406815551402

>  <distance_score>  (100) 
2.951760379937451

>  <path>  (100) 
/opt/xchem-fragalysis-2/maxwin/BulkDock/SCRATCH/511016/C12519-P68/C12519-P68.minimised.mol

>  <scratch_subdir>  (100) 
/opt/xchem-fragalysis-2/maxwin/BulkDock/SCRATCH/511016/C12519-P68

>  <fragmenstein_runtime>  (100) 
9.44468641281128

>  <fragmenstein_outcome>  (100) 
too moved

>  <fragmenstein_mode>  (100) 
expansion

>  <fragmenstein_error>  (100) 


$$$$
C12520-P64
     RDKit          3D

 37 39  0  0  0  0  0  0  0  0999 V2000
  -10.8361  -25.1384   27.4902 C   0  0  0  0  0  0  0  0  0  0  0  0
  -10.7546  -26.2354   26.4896 N   0  0  0  0  0  0  0  0  0  0  0  0
  -11.6731  -25.3069   25.7196 C   0  0  0  0  0  0  0  0  0  0  0  0
  -13.1539  -25.5889   25.7157 C   0  0  0  0  0  0  0  0  0  0  0  0
  -14.0795  -25.2615   26.6626 C   0  0  0  0  0  0  0  0  0  0  0  0
  -15.2972  -25.6367   26.1943 N   0  0  0  0  0  0  0  0  0  0  0  0
  -15.0986  -26.0940   24.9306 C   0  0  0  0  0  0  0  0  0  0  0  0
  -13.8200  -26.1083   24.6214 N   0  0  0  0  0  0  0  0  0  0  0  0
  -11.2966  -27.5639   26.5096 C   0  0  0  0  0  0  0  0  0  0  0  0
  -12.0309  -28.0949   27.3027 O   0  0  0  0  0  0  0  0  0  0  0  0
  -10.6254  -28.3288   25.1577 C   0  0  0  0  0  0  0  0  0  0  0  0
  -10.1310  -29.9486   24.9974 C   0  0  0  0  0  0  0  0  0  0  0  0
  -10.1271  -31.0780   23.9407 C   0  0  0  0  0  0  0  0  0  0  0  0
  -11.0297  -32.1553   24.0507 C   0  0  0  0  0  0  0  0  0  0  0  0
  -10.8468  -33.3617   23.3559 C   0  0  0  0  0  0  0  0  0  0  0  0
   -9.7071  -33.5341   22.5541 C   0  0  0  0  0  0  0  0  0  0  0  0
   -9.3289  -34.7136   21.9238 N   0  0  0  0  0  0  0  0  0  0  0  0
   -8.1883  -34.5186   21.3025 C   0  0  0  0  0  0  0  0  0  0  0  0
   -7.5285  -32.9438   21.3872 S   0  0  0  0  0  0  0  0  0  0  0  0
   -8.8437  -32.4496   22.3898 C   0  0  0  0  0  0  0  0  0  0  0  0
   -9.0622  -31.2071   23.0296 C   0  0  0  0  0  0  0  0  0  0  0  0
  -10.2472  -24.2516   27.2187 H   0  0  0  0  0  0  0  0  0  0  0  0
  -10.2881  -25.5515   28.3506 H   0  0  0  0  0  0  0  0  0  0  0  0
  -11.8129  -24.9178   27.9251 H   0  0  0  0  0  0  0  0  0  0  0  0
  -11.4608  -24.2230   25.6880 H   0  0  0  0  0  0  0  0  0  0  0  0
  -11.3548  -25.5867   24.7133 H   0  0  0  0  0  0  0  0  0  0  0  0
  -13.9622  -24.7660   27.5984 H   0  0  0  0  0  0  0  0  0  0  0  0
  -16.1820  -25.5436   26.6774 H   0  0  0  0  0  0  0  0  0  0  0  0
  -15.9119  -26.4186   24.2952 H   0  0  0  0  0  0  0  0  0  0  0  0
   -9.6806  -27.8097   25.2227 H   0  0  0  0  0  0  0  0  0  0  0  0
  -11.1695  -27.9532   24.3067 H   0  0  0  0  0  0  0  0  0  0  0  0
  -10.5004  -30.4999   25.8699 H   0  0  0  0  0  0  0  0  0  0  0  0
   -9.0509  -29.8472   25.1470 H   0  0  0  0  0  0  0  0  0  0  0  0
  -11.8580  -32.1170   24.7496 H   0  0  0  0  0  0  0  0  0  0  0  0
  -11.5333  -34.1894   23.4969 H   0  0  0  0  0  0  0  0  0  0  0  0
   -7.6882  -35.3039   20.7525 H   0  0  0  0  0  0  0  0  0  0  0  0
   -8.3221  -30.4186   22.9299 H   0  0  0  0  0  0  0  0  0  0  0  0
  1  2  1  0
  2  3  1  0
  3  4  1  0
  4  5  2  0
  5  6  1  0
  6  7  1  0
  7  8  2  0
  2  9  1  0
  9 10  2  0
  9 11  1  0
 11 12  1  0
 12 13  1  0
 13 14  2  0
 14 15  1  0
 15 16  2  0
 16 17  1  0
 17 18  2  0
 18 19  1  0
 19 20  1  0
 20 21  2  0
  8  4  1  0
 21 13  1  0
 20 16  1  0
  1 22  1  0
  1 23  1  0
  1 24  1  0
  3 25  1  0
  3 26  1  0
  5 27  1  0
  6 28  1  0
  7 29  1  0
 11 30  1  0
 11 31  1  0
 12 32  1  0
 12 33  1  0
 14 34  1  0
 15 35  1  0
 18 36  1  0
 21 37  1  0
M  END
>  <Energy>  (101) 
146.12670182708524

>  <compound_id>  (101) 
12520

>  <target_id>  (101) 
1

>  <reference_id>  (101) 
64

>  <inspiration_ids>  (101) 
[64, 68]

>  <energy_score>  (101) 
50.701440376605376

>  <distance_score>  (101) 
4.016644133633521

>  <path>  (101) 
/opt/xchem-fragalysis-2/maxwin/BulkDock/SCRATCH/511016/C12520-P64/C12520-P64.minimised.mol

>  <scratch_subdir>  (101) 
/opt/xchem-fragalysis-2/maxwin/BulkDock/SCRATCH/511016/C12520-P64

>  <fragmenstein_runtime>  (101) 
4.0066468715667725

>  <fragmenstein_outcome>  (101) 
too moved

>  <fragmenstein_mode>  (101) 
expansion

>  <fragmenstein_error>  (101) 


$$$$
C12520-P68
     RDKit          3D

 37 39  0  0  0  0  0  0  0  0999 V2000
   -8.9479  -28.6288   28.0194 C   0  0  0  0  0  0  0  0  0  0  0  0
   -9.8768  -29.4160   27.2572 N   0  0  0  0  0  0  0  0  0  0  0  0
  -10.6256  -28.2174   27.8266 C   0  0  0  0  0  0  0  0  0  0  0  0
  -11.0285  -27.2226   26.4861 C   0  0  0  0  0  0  0  0  0  0  0  0
  -10.6308  -25.8954   26.3255 C   0  0  0  0  0  0  0  0  0  0  0  0
  -11.8410  -25.2170   26.2124 N   0  0  0  0  0  0  0  0  0  0  0  0
  -12.7932  -26.1393   25.9223 C   0  0  0  0  0  0  0  0  0  0  0  0
  -12.2336  -27.3234   25.8207 N   0  0  0  0  0  0  0  0  0  0  0  0
  -10.2320  -30.9110   27.4130 C   0  0  0  0  0  0  0  0  0  0  0  0
   -9.8866  -31.7287   28.2455 O   0  0  0  0  0  0  0  0  0  0  0  0
  -11.6087  -31.7115   26.2190 C   0  0  0  0  0  0  0  0  0  0  0  0
  -12.6525  -32.9331   25.8415 C   0  0  0  0  0  0  0  0  0  0  0  0
  -12.1248  -34.2316   25.1630 C   0  0  0  0  0  0  0  0  0  0  0  0
  -12.8752  -35.4058   25.3096 C   0  0  0  0  0  0  0  0  0  0  0  0
  -12.4067  -36.6416   24.8305 C   0  0  0  0  0  0  0  0  0  0  0  0
  -11.1667  -36.7258   24.1671 C   0  0  0  0  0  0  0  0  0  0  0  0
  -10.5611  -37.8816   23.6999 N   0  0  0  0  0  0  0  0  0  0  0  0
   -9.4050  -37.5811   23.1529 C   0  0  0  0  0  0  0  0  0  0  0  0
   -9.0010  -35.9196   23.0969 S   0  0  0  0  0  0  0  0  0  0  0  0
  -10.4590  -35.5478   23.9438 C   0  0  0  0  0  0  0  0  0  0  0  0
  -10.9374  -34.2996   24.3936 C   0  0  0  0  0  0  0  0  0  0  0  0
   -8.7810  -29.3159   28.8765 H   0  0  0  0  0  0  0  0  0  0  0  0
   -7.9093  -28.6311   27.6782 H   0  0  0  0  0  0  0  0  0  0  0  0
   -9.1171  -28.2414   29.0761 H   0  0  0  0  0  0  0  0  0  0  0  0
  -10.2556  -27.3315   28.3783 H   0  0  0  0  0  0  0  0  0  0  0  0
  -11.5166  -28.4357   28.3434 H   0  0  0  0  0  0  0  0  0  0  0  0
   -9.8131  -25.3010   26.6984 H   0  0  0  0  0  0  0  0  0  0  0  0
  -11.9901  -24.2426   26.4565 H   0  0  0  0  0  0  0  0  0  0  0  0
  -13.8162  -25.8871   25.6858 H   0  0  0  0  0  0  0  0  0  0  0  0
  -12.3933  -30.9491   26.1496 H   0  0  0  0  0  0  0  0  0  0  0  0
  -10.9812  -32.2900   25.5654 H   0  0  0  0  0  0  0  0  0  0  0  0
  -13.3260  -32.5284   25.0738 H   0  0  0  0  0  0  0  0  0  0  0  0
  -13.3134  -33.1696   26.6819 H   0  0  0  0  0  0  0  0  0  0  0  0
  -13.8225  -35.3860   25.8465 H   0  0  0  0  0  0  0  0  0  0  0  0
  -12.9834  -37.5479   24.9892 H   0  0  0  0  0  0  0  0  0  0  0  0
   -8.7462  -38.3376   22.7469 H   0  0  0  0  0  0  0  0  0  0  0  0
  -10.3340  -33.4262   24.1710 H   0  0  0  0  0  0  0  0  0  0  0  0
  1  2  1  0
  2  3  1  0
  3  4  1  0
  4  5  2  0
  5  6  1  0
  6  7  1  0
  7  8  2  0
  2  9  1  0
  9 10  2  0
  9 11  1  0
 11 12  1  0
 12 13  1  0
 13 14  2  0
 14 15  1  0
 15 16  2  0
 16 17  1  0
 17 18  2  0
 18 19  1  0
 19 20  1  0
 20 21  2  0
  8  4  1  0
 21 13  1  0
 20 16  1  0
  1 22  1  0
  1 23  1  0
  1 24  1  0
  3 25  1  0
  3 26  1  0
  5 27  1  0
  6 28  1  0
  7 29  1  0
 11 30  1  0
 11 31  1  0
 12 32  1  0
 12 33  1  0
 14 34  1  0
 15 35  1  0
 18 36  1  0
 21 37  1  0
M  END
>  <Energy>  (102) 
345.3636972275695

>  <compound_id>  (102) 
12520

>  <target_id>  (102) 
1

>  <reference_id>  (102) 
68

>  <inspiration_ids>  (102) 
[64, 68]

>  <energy_score>  (102) 
249.9384357770923

>  <distance_score>  (102) 
2.9590753143314954

>  <path>  (102) 
/opt/xchem-fragalysis-2/maxwin/BulkDock/SCRATCH/511016/C12520-P68/C12520-P68.minimised.mol

>  <scratch_subdir>  (102) 
/opt/xchem-fragalysis-2/maxwin/BulkDock/SCRATCH/511016/C12520-P68

>  <fragmenstein_runtime>  (102) 
8.231706857681274

>  <fragmenstein_outcome>  (102) 
too moved

>  <fragmenstein_mode>  (102) 
expansion

>  <fragmenstein_error>  (102) 


$$$$
C12521-P64
     RDKit          3D

 34 37  0  0  0  0  0  0  0  0999 V2000
  -12.0323  -24.4672   27.8173 O   0  0  0  0  0  0  0  0  0  0  0  0
  -11.1565  -25.3034   27.6403 C   0  0  0  0  0  0  0  0  0  0  0  0
  -10.1602  -25.4403   28.5470 O   0  0  0  0  0  0  0  0  0  0  0  0
  -11.1054  -26.2519   26.5350 C   0  0  0  0  0  0  0  0  0  0  0  0
  -10.1581  -27.2188   26.2752 C   0  0  0  0  0  0  0  0  0  0  0  0
  -10.5186  -28.0077   25.1561 N   0  0  0  0  0  0  0  0  0  0  0  0
  -10.0180  -29.4855   24.6120 C   0  0  0  0  0  0  0  0  0  0  0  0
  -10.3981  -30.6484   25.2795 C   0  0  0  0  0  0  0  0  0  0  0  0
  -10.6168  -31.9015   24.6378 C   0  0  0  0  0  0  0  0  0  0  0  0
  -10.0679  -32.2686   23.4198 C   0  0  0  0  0  0  0  0  0  0  0  0
   -9.8693  -33.7158   23.0878 C   0  0  0  0  0  0  0  0  0  0  0  0
  -10.6059  -34.7293   23.7361 C   0  0  0  0  0  0  0  0  0  0  0  0
  -10.1561  -36.0578   23.8108 C   0  0  0  0  0  0  0  0  0  0  0  0
   -8.9587  -36.4200   23.1755 C   0  0  0  0  0  0  0  0  0  0  0  0
   -8.3334  -37.6549   23.2509 N   0  0  0  0  0  0  0  0  0  0  0  0
   -7.2538  -37.6401   22.5035 C   0  0  0  0  0  0  0  0  0  0  0  0
   -6.9252  -36.1835   21.6694 S   0  0  0  0  0  0  0  0  0  0  0  0
   -8.3097  -35.4613   22.3993 C   0  0  0  0  0  0  0  0  0  0  0  0
   -8.7582  -34.1246   22.3237 C   0  0  0  0  0  0  0  0  0  0  0  0
   -9.5533  -31.1847   22.7304 C   0  0  0  0  0  0  0  0  0  0  0  0
   -9.5878  -29.8401   23.2844 C   0  0  0  0  0  0  0  0  0  0  0  0
  -11.5917  -27.2358   24.7392 C   0  0  0  0  0  0  0  0  0  0  0  0
  -12.0003  -26.2685   25.5245 N   0  0  0  0  0  0  0  0  0  0  0  0
  -10.4287  -24.8140   29.2535 H   0  0  0  0  0  0  0  0  0  0  0  0
   -9.2204  -27.3549   26.7884 H   0  0  0  0  0  0  0  0  0  0  0  0
  -10.7781  -30.6441   26.2939 H   0  0  0  0  0  0  0  0  0  0  0  0
  -11.1831  -32.6240   25.2077 H   0  0  0  0  0  0  0  0  0  0  0  0
  -11.5162  -34.4917   24.2818 H   0  0  0  0  0  0  0  0  0  0  0  0
  -10.7044  -36.7956   24.3878 H   0  0  0  0  0  0  0  0  0  0  0  0
   -6.6074  -38.5026   22.4060 H   0  0  0  0  0  0  0  0  0  0  0  0
   -8.1416  -33.3980   21.7988 H   0  0  0  0  0  0  0  0  0  0  0  0
   -9.1482  -31.2994   21.7271 H   0  0  0  0  0  0  0  0  0  0  0  0
   -9.4264  -29.0920   22.5161 H   0  0  0  0  0  0  0  0  0  0  0  0
  -12.0958  -27.4548   23.8395 H   0  0  0  0  0  0  0  0  0  0  0  0
  1  2  2  0
  2  3  1  0
  2  4  1  0
  4  5  2  0
  5  6  1  0
  6  7  1  0
  7  8  2  0
  8  9  1  0
  9 10  2  0
 10 11  1  0
 11 12  2  0
 12 13  1  0
 13 14  2  0
 14 15  1  0
 15 16  2  0
 16 17  1  0
 17 18  1  0
 18 19  2  0
 10 20  1  0
 20 21  2  0
  6 22  1  0
 22 23  2  0
 23  4  1  0
 21  7  1  0
 19 11  1  0
 18 14  1  0
  3 24  1  0
  5 25  1  0
  8 26  1  0
  9 27  1  0
 12 28  1  0
 13 29  1  0
 16 30  1  0
 19 31  1  0
 20 32  1  0
 21 33  1  0
 22 34  1  0
M  END
>  <Energy>  (103) 
150.46771486660992

>  <compound_id>  (103) 
12521

>  <target_id>  (103) 
1

>  <reference_id>  (103) 
64

>  <inspiration_ids>  (103) 
[64, 68]

>  <energy_score>  (103) 
16.483267278046696

>  <distance_score>  (103) 
2.349764115125642

>  <path>  (103) 
/opt/xchem-fragalysis-2/maxwin/BulkDock/SCRATCH/511016/C12521-P64/C12521-P64.minimised.mol

>  <scratch_subdir>  (103) 
/opt/xchem-fragalysis-2/maxwin/BulkDock/SCRATCH/511016/C12521-P64

>  <fragmenstein_runtime>  (103) 
2.682849407196045

>  <fragmenstein_outcome>  (103) 
too moved

>  <fragmenstein_mode>  (103) 
expansion

>  <fragmenstein_error>  (103) 


$$$$
C12521-P68
     RDKit          3D

 34 37  0  0  0  0  0  0  0  0999 V2000
  -19.2324  -30.8594   23.3009 O   0  0  0  0  0  0  0  0  0  0  0  0
  -18.6471  -30.6519   24.3528 C   0  0  0  0  0  0  0  0  0  0  0  0
  -19.1305  -29.8457   25.3338 O   0  0  0  0  0  0  0  0  0  0  0  0
  -17.3552  -31.2241   24.7090 C   0  0  0  0  0  0  0  0  0  0  0  0
  -16.5839  -32.0968   23.9751 C   0  0  0  0  0  0  0  0  0  0  0  0
  -15.4557  -32.3513   24.7179 N   0  0  0  0  0  0  0  0  0  0  0  0
  -14.3444  -33.1627   24.3482 C   0  0  0  0  0  0  0  0  0  0  0  0
  -14.3251  -33.8761   23.1406 C   0  0  0  0  0  0  0  0  0  0  0  0
  -13.1974  -34.6322   22.7786 C   0  0  0  0  0  0  0  0  0  0  0  0
  -12.0744  -34.6801   23.6069 C   0  0  0  0  0  0  0  0  0  0  0  0
  -10.8937  -35.4942   23.3177 C   0  0  0  0  0  0  0  0  0  0  0  0
   -9.8773  -35.0200   22.4875 C   0  0  0  0  0  0  0  0  0  0  0  0
   -8.6747  -35.7267   22.3479 C   0  0  0  0  0  0  0  0  0  0  0  0
   -8.4750  -36.9311   23.0442 C   0  0  0  0  0  0  0  0  0  0  0  0
   -7.3267  -37.7023   23.0219 N   0  0  0  0  0  0  0  0  0  0  0  0
   -7.4903  -38.7406   23.8096 C   0  0  0  0  0  0  0  0  0  0  0  0
   -9.0112  -38.8859   24.5766 S   0  0  0  0  0  0  0  0  0  0  0  0
   -9.5085  -37.4111   23.8459 C   0  0  0  0  0  0  0  0  0  0  0  0
  -10.7214  -36.7186   23.9871 C   0  0  0  0  0  0  0  0  0  0  0  0
  -12.0971  -33.9433   24.7928 C   0  0  0  0  0  0  0  0  0  0  0  0
  -13.2205  -33.2118   25.1752 C   0  0  0  0  0  0  0  0  0  0  0  0
  -15.6120  -31.6227   25.8808 C   0  0  0  0  0  0  0  0  0  0  0  0
  -16.7246  -30.9206   25.8970 N   0  0  0  0  0  0  0  0  0  0  0  0
  -18.4798  -29.8592   26.0715 H   0  0  0  0  0  0  0  0  0  0  0  0
  -16.7682  -32.5293   23.0021 H   0  0  0  0  0  0  0  0  0  0  0  0
  -15.1680  -33.8789   22.4547 H   0  0  0  0  0  0  0  0  0  0  0  0
  -13.2098  -35.1950   21.8463 H   0  0  0  0  0  0  0  0  0  0  0  0
   -9.9944  -34.0713   21.9676 H   0  0  0  0  0  0  0  0  0  0  0  0
   -7.8699  -35.3465   21.7291 H   0  0  0  0  0  0  0  0  0  0  0  0
   -6.7163  -39.4753   23.9741 H   0  0  0  0  0  0  0  0  0  0  0  0
  -11.4962  -37.1076   24.6425 H   0  0  0  0  0  0  0  0  0  0  0  0
  -11.2131  -33.9432   25.4285 H   0  0  0  0  0  0  0  0  0  0  0  0
  -13.1654  -32.6689   26.1106 H   0  0  0  0  0  0  0  0  0  0  0  0
  -14.8955  -31.6357   26.6905 H   0  0  0  0  0  0  0  0  0  0  0  0
  1  2  2  0
  2  3  1  0
  2  4  1  0
  4  5  2  0
  5  6  1  0
  6  7  1  0
  7  8  2  0
  8  9  1  0
  9 10  2  0
 10 11  1  0
 11 12  2  0
 12 13  1  0
 13 14  2  0
 14 15  1  0
 15 16  2  0
 16 17  1  0
 17 18  1  0
 18 19  2  0
 10 20  1  0
 20 21  2  0
  6 22  1  0
 22 23  2  0
 23  4  1  0
 21  7  1  0
 19 11  1  0
 18 14  1  0
  3 24  1  0
  5 25  1  0
  8 26  1  0
  9 27  1  0
 12 28  1  0
 13 29  1  0
 16 30  1  0
 19 31  1  0
 20 32  1  0
 21 33  1  0
 22 34  1  0
M  END
>  <Energy>  (104) 
71.436674323411495

>  <compound_id>  (104) 
12521

>  <target_id>  (104) 
1

>  <reference_id>  (104) 
68

>  <inspiration_ids>  (104) 
[64, 68]

>  <energy_score>  (104) 
-90.61959818243247

>  <distance_score>  (104) 
6.275587554869079

>  <path>  (104) 
/opt/xchem-fragalysis-2/maxwin/BulkDock/SCRATCH/511016/C12521-P68/C12521-P68.minimised.mol

>  <scratch_subdir>  (104) 
/opt/xchem-fragalysis-2/maxwin/BulkDock/SCRATCH/511016/C12521-P68

>  <fragmenstein_runtime>  (104) 
7.389982461929321

>  <fragmenstein_outcome>  (104) 
too moved

>  <fragmenstein_mode>  (104) 
expansion

>  <fragmenstein_error>  (104) 


$$$$
C12522-P64
     RDKit          3D

 37 39  0  0  0  0  0  0  0  0999 V2000
   -8.5005  -29.2482   25.0862 O   0  0  0  0  0  0  0  0  0  0  0  0
   -9.6128  -29.4129   24.8204 C   0  0  0  0  0  0  0  0  0  0  0  0
  -10.6565  -28.2254   25.1244 C   0  0  0  0  0  0  0  0  0  0  0  0
  -10.7231  -26.9172   25.8899 N   0  0  0  0  0  0  0  0  0  0  0  0
  -11.8313  -26.1103   25.6891 C   0  0  0  0  0  0  0  0  0  0  0  0
  -11.9999  -25.2190   26.6273 N   0  0  0  0  0  0  0  0  0  0  0  0
  -11.0062  -25.4556   27.5441 C   0  0  0  0  0  0  0  0  0  0  0  0
  -10.8984  -24.7136   28.7937 C   0  0  0  0  0  0  0  0  0  0  0  0
  -11.5196  -23.6970   29.0728 O   0  0  0  0  0  0  0  0  0  0  0  0
  -10.0735  -25.2862   29.7018 O   0  0  0  0  0  0  0  0  0  0  0  0
  -10.2430  -26.5288   27.1188 C   0  0  0  0  0  0  0  0  0  0  0  0
  -10.3122  -30.6173   24.1785 N   0  0  0  0  0  0  0  0  0  0  0  0
   -9.7678  -31.8386   23.6410 C   0  0  0  0  0  0  0  0  0  0  0  0
  -10.8286  -32.9000   23.2810 C   0  0  0  0  0  0  0  0  0  0  0  0
  -10.2186  -34.2883   23.2868 C   0  0  0  0  0  0  0  0  0  0  0  0
  -10.6084  -35.2209   24.2543 C   0  0  0  0  0  0  0  0  0  0  0  0
   -9.9047  -36.4183   24.4252 C   0  0  0  0  0  0  0  0  0  0  0  0
   -8.8032  -36.7078   23.5983 C   0  0  0  0  0  0  0  0  0  0  0  0
   -7.9815  -37.8188   23.6999 N   0  0  0  0  0  0  0  0  0  0  0  0
   -7.0739  -37.7752   22.7517 C   0  0  0  0  0  0  0  0  0  0  0  0
   -7.1299  -36.4259   21.7014 S   0  0  0  0  0  0  0  0  0  0  0  0
   -8.4762  -35.8090   22.5815 C   0  0  0  0  0  0  0  0  0  0  0  0
   -9.1761  -34.6032   22.3986 C   0  0  0  0  0  0  0  0  0  0  0  0
  -11.1925  -28.7039   25.9039 H   0  0  0  0  0  0  0  0  0  0  0  0
  -11.2263  -27.9934   24.2470 H   0  0  0  0  0  0  0  0  0  0  0  0
  -12.5144  -26.2714   24.8709 H   0  0  0  0  0  0  0  0  0  0  0  0
  -10.2531  -24.7722   30.5169 H   0  0  0  0  0  0  0  0  0  0  0  0
   -9.3905  -26.9899   27.5924 H   0  0  0  0  0  0  0  0  0  0  0  0
  -11.2774  -30.3956   24.0132 H   0  0  0  0  0  0  0  0  0  0  0  0
   -9.0454  -32.2062   24.3611 H   0  0  0  0  0  0  0  0  0  0  0  0
   -9.1942  -31.5632   22.7483 H   0  0  0  0  0  0  0  0  0  0  0  0
  -11.2625  -32.6870   22.2968 H   0  0  0  0  0  0  0  0  0  0  0  0
  -11.6557  -32.8561   24.0008 H   0  0  0  0  0  0  0  0  0  0  0  0
  -11.4270  -35.0018   24.9371 H   0  0  0  0  0  0  0  0  0  0  0  0
  -10.1815  -37.1152   25.2102 H   0  0  0  0  0  0  0  0  0  0  0  0
   -6.3262  -38.5489   22.6331 H   0  0  0  0  0  0  0  0  0  0  0  0
   -8.8543  -33.8993   21.6346 H   0  0  0  0  0  0  0  0  0  0  0  0
  1  2  2  0
  2  3  1  0
  3  4  1  0
  4  5  1  0
  5  6  2  0
  6  7  1  0
  7  8  1  0
  8  9  2  0
  8 10  1  0
  7 11  2  0
  2 12  1  0
 12 13  1  0
 13 14  1  0
 14 15  1  0
 15 16  2  0
 16 17  1  0
 17 18  2  0
 18 19  1  0
 19 20  2  0
 20 21  1  0
 21 22  1  0
 22 23  2  0
 11  4  1  0
 23 15  1  0
 22 18  1  0
  3 24  1  0
  3 25  1  0
  5 26  1  0
 10 27  1  0
 11 28  1  0
 12 29  1  0
 13 30  1  0
 13 31  1  0
 14 32  1  0
 14 33  1  0
 16 34  1  0
 17 35  1  0
 20 36  1  0
 23 37  1  0
M  END
>  <Energy>  (105) 
109.58611955147933

>  <compound_id>  (105) 
12522

>  <target_id>  (105) 
1

>  <reference_id>  (105) 
64

>  <inspiration_ids>  (105) 
[64, 68]

>  <energy_score>  (105) 
-34.62002455165151

>  <distance_score>  (105) 
1.525535920334058

>  <path>  (105) 
/opt/xchem-fragalysis-2/maxwin/BulkDock/SCRATCH/511016/C12522-P64/C12522-P64.minimised.mol

>  <scratch_subdir>  (105) 
/opt/xchem-fragalysis-2/maxwin/BulkDock/SCRATCH/511016/C12522-P64

>  <fragmenstein_runtime>  (105) 
3.8685102462768555

>  <fragmenstein_outcome>  (105) 
too moved

>  <fragmenstein_mode>  (105) 
expansion

>  <fragmenstein_error>  (105) 


$$$$
C12522-P68
     RDKit          3D

 37 39  0  0  0  0  0  0  0  0999 V2000
  -10.2633  -27.1506   21.1206 O   0  0  0  0  0  0  0  0  0  0  0  0
  -10.5892  -27.9953   21.8750 C   0  0  0  0  0  0  0  0  0  0  0  0
  -10.7376  -27.4508   23.9936 C   0  0  0  0  0  0  0  0  0  0  0  0
  -11.1970  -26.4069   25.3898 N   0  0  0  0  0  0  0  0  0  0  0  0
  -12.5047  -26.4450   25.9064 C   0  0  0  0  0  0  0  0  0  0  0  0
  -12.8960  -25.2566   26.2547 N   0  0  0  0  0  0  0  0  0  0  0  0
  -11.6994  -24.5391   26.3874 C   0  0  0  0  0  0  0  0  0  0  0  0
  -11.7282  -23.1427   26.7298 C   0  0  0  0  0  0  0  0  0  0  0  0
  -12.2975  -22.3165   26.0305 O   0  0  0  0  0  0  0  0  0  0  0  0
  -11.0914  -22.7824   27.8702 O   0  0  0  0  0  0  0  0  0  0  0  0
  -10.6033  -25.3309   26.0085 C   0  0  0  0  0  0  0  0  0  0  0  0
  -10.8981  -29.8411   21.5708 N   0  0  0  0  0  0  0  0  0  0  0  0
  -10.9074  -30.6072   20.3481 C   0  0  0  0  0  0  0  0  0  0  0  0
  -11.7966  -31.9127   20.5480 C   0  0  0  0  0  0  0  0  0  0  0  0
  -11.3698  -32.9681   21.5727 C   0  0  0  0  0  0  0  0  0  0  0  0
  -11.7979  -32.9221   22.8960 C   0  0  0  0  0  0  0  0  0  0  0  0
  -11.3523  -33.8376   23.8693 C   0  0  0  0  0  0  0  0  0  0  0  0
  -10.4644  -34.8666   23.5128 C   0  0  0  0  0  0  0  0  0  0  0  0
   -9.9083  -35.8070   24.3634 N   0  0  0  0  0  0  0  0  0  0  0  0
   -9.1416  -36.6219   23.6733 C   0  0  0  0  0  0  0  0  0  0  0  0
   -9.0759  -36.3483   21.9831 S   0  0  0  0  0  0  0  0  0  0  0  0
  -10.1172  -34.9851   22.1694 C   0  0  0  0  0  0  0  0  0  0  0  0
  -10.6009  -34.0762   21.2022 C   0  0  0  0  0  0  0  0  0  0  0  0
   -9.8213  -27.7881   24.6188 H   0  0  0  0  0  0  0  0  0  0  0  0
  -11.5592  -27.9145   24.5965 H   0  0  0  0  0  0  0  0  0  0  0  0
  -13.1750  -27.2754   25.7801 H   0  0  0  0  0  0  0  0  0  0  0  0
  -11.4386  -21.8714   27.9913 H   0  0  0  0  0  0  0  0  0  0  0  0
   -9.5696  -25.0461   25.9284 H   0  0  0  0  0  0  0  0  0  0  0  0
  -11.2403  -30.2934   22.3772 H   0  0  0  0  0  0  0  0  0  0  0  0
   -9.8877  -30.8925   20.2397 H   0  0  0  0  0  0  0  0  0  0  0  0
  -11.4028  -30.0340   19.5742 H   0  0  0  0  0  0  0  0  0  0  0  0
  -11.8938  -32.4071   19.5732 H   0  0  0  0  0  0  0  0  0  0  0  0
  -12.8142  -31.5908   20.8103 H   0  0  0  0  0  0  0  0  0  0  0  0
  -12.5224  -32.1777   23.1897 H   0  0  0  0  0  0  0  0  0  0  0  0
  -11.6810  -33.7578   24.9002 H   0  0  0  0  0  0  0  0  0  0  0  0
   -8.5910  -37.4299   24.1398 H   0  0  0  0  0  0  0  0  0  0  0  0
  -10.3846  -34.2543   20.1616 H   0  0  0  0  0  0  0  0  0  0  0  0
  1  2  2  0
  2  3  1  0
  3  4  1  0
  4  5  1  0
  5  6  2  0
  6  7  1  0
  7  8  1  0
  8  9  2  0
  8 10  1  0
  7 11  2  0
  2 12  1  0
 12 13  1  0
 13 14  1  0
 14 15  1  0
 15 16  2  0
 16 17  1  0
 17 18  2  0
 18 19  1  0
 19 20  2  0
 20 21  1  0
 21 22  1  0
 22 23  2  0
 11  4  1  0
 23 15  1  0
 22 18  1  0
  3 24  1  0
  3 25  1  0
  5 26  1  0
 10 27  1  0
 11 28  1  0
 12 29  1  0
 13 30  1  0
 13 31  1  0
 14 32  1  0
 14 33  1  0
 16 34  1  0
 17 35  1  0
 20 36  1  0
 23 37  1  0
M  END
>  <Energy>  (106) 
388.37763353490982

>  <compound_id>  (106) 
12522

>  <target_id>  (106) 
1

>  <reference_id>  (106) 
68

>  <inspiration_ids>  (106) 
[64, 68]

>  <energy_score>  (106) 
274.1032797175733

>  <distance_score>  (106) 
2.941422107674887

>  <path>  (106) 
/opt/xchem-fragalysis-2/maxwin/BulkDock/SCRATCH/511016/C12522-P68/C12522-P68.minimised.mol

>  <scratch_subdir>  (106) 
/opt/xchem-fragalysis-2/maxwin/BulkDock/SCRATCH/511016/C12522-P68

>  <fragmenstein_runtime>  (106) 
10.014833927154541

>  <fragmenstein_outcome>  (106) 
too moved

>  <fragmenstein_mode>  (106) 
expansion

>  <fragmenstein_error>  (106) 


$$$$
C12524-P64
     RDKit          3D

 38 40  0  0  0  0  0  0  0  0999 V2000
  -10.7214  -30.8801   25.8293 O   0  0  0  0  0  0  0  0  0  0  0  0
  -10.3816  -30.0661   25.0243 C   0  0  0  0  0  0  0  0  0  0  0  0
   -9.7212  -30.6502   23.7199 C   0  0  0  0  0  0  0  0  0  0  0  0
  -10.5648  -31.8557   23.0980 C   0  0  0  0  0  0  0  0  0  0  0  0
  -10.0478  -33.2934   23.1798 C   0  0  0  0  0  0  0  0  0  0  0  0
  -10.7151  -34.2467   23.9622 C   0  0  0  0  0  0  0  0  0  0  0  0
  -10.2204  -35.5543   24.1194 C   0  0  0  0  0  0  0  0  0  0  0  0
   -9.0570  -35.9513   23.4346 C   0  0  0  0  0  0  0  0  0  0  0  0
   -8.4222  -37.1825   23.5407 N   0  0  0  0  0  0  0  0  0  0  0  0
   -7.3934  -37.2107   22.7251 C   0  0  0  0  0  0  0  0  0  0  0  0
   -7.1176  -35.8007   21.7964 S   0  0  0  0  0  0  0  0  0  0  0  0
   -8.4581  -35.0345   22.5674 C   0  0  0  0  0  0  0  0  0  0  0  0
   -8.9330  -33.7085   22.4309 C   0  0  0  0  0  0  0  0  0  0  0  0
  -10.5889  -28.4482   25.0100 N   0  0  0  0  0  0  0  0  0  0  0  0
  -11.3824  -27.5145   25.9947 C   0  0  0  0  0  0  0  0  0  0  0  0
  -12.0416  -28.0035   27.3356 C   0  0  0  0  0  0  0  0  0  0  0  0
  -13.4464  -27.6322   27.3467 O   0  0  0  0  0  0  0  0  0  0  0  0
  -10.8180  -26.1912   26.4468 C   0  0  0  0  0  0  0  0  0  0  0  0
   -9.9871  -26.0475   27.4659 N   0  0  0  0  0  0  0  0  0  0  0  0
  -10.2629  -24.8283   28.0190 C   0  0  0  0  0  0  0  0  0  0  0  0
  -11.2002  -24.1614   27.2772 C   0  0  0  0  0  0  0  0  0  0  0  0
  -11.5042  -25.0053   26.2441 N   0  0  0  0  0  0  0  0  0  0  0  0
   -8.7319  -31.0121   23.9602 H   0  0  0  0  0  0  0  0  0  0  0  0
   -9.5863  -29.8657   22.9708 H   0  0  0  0  0  0  0  0  0  0  0  0
  -10.6858  -31.6444   22.0261 H   0  0  0  0  0  0  0  0  0  0  0  0
  -11.5797  -31.8444   23.5143 H   0  0  0  0  0  0  0  0  0  0  0  0
  -11.6072  -33.9611   24.5177 H   0  0  0  0  0  0  0  0  0  0  0  0
  -10.7201  -36.2547   24.7810 H   0  0  0  0  0  0  0  0  0  0  0  0
   -6.7545  -38.0790   22.6322 H   0  0  0  0  0  0  0  0  0  0  0  0
   -8.4106  -33.0081   21.7821 H   0  0  0  0  0  0  0  0  0  0  0  0
  -10.2593  -28.0803   24.1615 H   0  0  0  0  0  0  0  0  0  0  0  0
  -12.1922  -27.1924   25.3207 H   0  0  0  0  0  0  0  0  0  0  0  0
  -11.9924  -29.0744   27.4998 H   0  0  0  0  0  0  0  0  0  0  0  0
  -11.5728  -27.5697   28.2190 H   0  0  0  0  0  0  0  0  0  0  0  0
  -13.8787  -28.0658   28.1018 H   0  0  0  0  0  0  0  0  0  0  0  0
   -9.7747  -24.5104   28.9270 H   0  0  0  0  0  0  0  0  0  0  0  0
  -11.6693  -23.1937   27.3907 H   0  0  0  0  0  0  0  0  0  0  0  0
  -12.2618  -24.8655   25.5923 H   0  0  0  0  0  0  0  0  0  0  0  0
  1  2  2  0
  2  3  1  0
  3  4  1  0
  4  5  1  0
  5  6  2  0
  6  7  1  0
  7  8  2  0
  8  9  1  0
  9 10  2  0
 10 11  1  0
 11 12  1  0
 12 13  2  0
  2 14  1  0
 14 15  1  0
 15 16  1  0
 16 17  1  0
 15 18  1  0
 18 19  2  0
 19 20  1  0
 20 21  2  0
 21 22  1  0
 13  5  1  0
 22 18  1  0
 12  8  1  0
  3 23  1  0
  3 24  1  0
  4 25  1  0
  4 26  1  0
  6 27  1  0
  7 28  1  0
 10 29  1  0
 13 30  1  0
 14 31  1  0
 15 32  1  0
 16 33  1  0
 16 34  1  0
 17 35  1  0
 20 36  1  0
 21 37  1  0
 22 38  1  0
M  END
>  <Energy>  (107) 
94.468776085344203

>  <compound_id>  (107) 
12524

>  <target_id>  (107) 
1

>  <reference_id>  (107) 
64

>  <inspiration_ids>  (107) 
[64, 68]

>  <energy_score>  (107) 
-21.0772881062573

>  <distance_score>  (107) 
1.4538423169044672

>  <path>  (107) 
/opt/xchem-fragalysis-2/maxwin/BulkDock/SCRATCH/511016/C12524-P64/C12524-P64.minimised.mol

>  <scratch_subdir>  (107) 
/opt/xchem-fragalysis-2/maxwin/BulkDock/SCRATCH/511016/C12524-P64

>  <fragmenstein_runtime>  (107) 
1.975980520248413

>  <fragmenstein_outcome>  (107) 
too moved

>  <fragmenstein_mode>  (107) 
expansion

>  <fragmenstein_error>  (107) 


$$$$
C12524-P68
     RDKit          3D

 38 40  0  0  0  0  0  0  0  0999 V2000
  -14.3002  -31.5752   26.3433 O   0  0  0  0  0  0  0  0  0  0  0  0
  -14.9070  -31.7531   25.3514 C   0  0  0  0  0  0  0  0  0  0  0  0
  -14.5803  -33.0596   24.4405 C   0  0  0  0  0  0  0  0  0  0  0  0
  -13.3852  -33.1713   23.3754 C   0  0  0  0  0  0  0  0  0  0  0  0
  -12.1193  -34.0404   23.5883 C   0  0  0  0  0  0  0  0  0  0  0  0
  -11.4949  -34.1139   24.8252 C   0  0  0  0  0  0  0  0  0  0  0  0
  -10.2877  -34.8258   25.0231 C   0  0  0  0  0  0  0  0  0  0  0  0
   -9.6661  -35.5133   23.9670 C   0  0  0  0  0  0  0  0  0  0  0  0
   -8.4931  -36.2527   24.0432 N   0  0  0  0  0  0  0  0  0  0  0  0
   -8.2064  -36.7451   22.8621 C   0  0  0  0  0  0  0  0  0  0  0  0
   -9.3042  -36.3569   21.6045 S   0  0  0  0  0  0  0  0  0  0  0  0
  -10.2683  -35.4386   22.7113 C   0  0  0  0  0  0  0  0  0  0  0  0
  -11.4723  -34.6987   22.5048 C   0  0  0  0  0  0  0  0  0  0  0  0
  -16.0665  -30.9000   24.6935 N   0  0  0  0  0  0  0  0  0  0  0  0
  -16.8078  -29.6435   25.2126 C   0  0  0  0  0  0  0  0  0  0  0  0
  -18.0904  -29.4917   24.3378 C   0  0  0  0  0  0  0  0  0  0  0  0
  -18.7556  -30.7457   24.1752 O   0  0  0  0  0  0  0  0  0  0  0  0
  -16.0501  -28.1839   25.2777 C   0  0  0  0  0  0  0  0  0  0  0  0
  -14.8276  -27.8903   25.7034 N   0  0  0  0  0  0  0  0  0  0  0  0
  -14.5533  -26.5655   25.5416 C   0  0  0  0  0  0  0  0  0  0  0  0
  -15.6974  -25.9570   25.1278 C   0  0  0  0  0  0  0  0  0  0  0  0
  -16.6213  -26.9610   24.9442 N   0  0  0  0  0  0  0  0  0  0  0  0
  -15.5063  -33.2622   23.8857 H   0  0  0  0  0  0  0  0  0  0  0  0
  -14.4904  -33.8936   25.1490 H   0  0  0  0  0  0  0  0  0  0  0  0
  -13.0384  -32.1859   23.0669 H   0  0  0  0  0  0  0  0  0  0  0  0
  -13.8642  -33.5943   22.4801 H   0  0  0  0  0  0  0  0  0  0  0  0
  -11.9349  -33.5763   25.6572 H   0  0  0  0  0  0  0  0  0  0  0  0
   -9.7979  -34.8253   25.9922 H   0  0  0  0  0  0  0  0  0  0  0  0
   -7.3323  -37.3599   22.6899 H   0  0  0  0  0  0  0  0  0  0  0  0
  -11.8965  -34.6490   21.5044 H   0  0  0  0  0  0  0  0  0  0  0  0
  -16.4247  -31.3846   23.8785 H   0  0  0  0  0  0  0  0  0  0  0  0
  -17.1577  -29.9334   26.2021 H   0  0  0  0  0  0  0  0  0  0  0  0
  -18.7909  -28.7913   24.8050 H   0  0  0  0  0  0  0  0  0  0  0  0
  -17.8410  -29.1232   23.3370 H   0  0  0  0  0  0  0  0  0  0  0  0
  -19.6047  -30.5739   23.7304 H   0  0  0  0  0  0  0  0  0  0  0  0
  -13.5893  -26.1411   25.7931 H   0  0  0  0  0  0  0  0  0  0  0  0
  -15.9613  -24.9241   24.9589 H   0  0  0  0  0  0  0  0  0  0  0  0
  -17.5690  -26.8158   24.6266 H   0  0  0  0  0  0  0  0  0  0  0  0
  1  2  2  0
  2  3  1  0
  3  4  1  0
  4  5  1  0
  5  6  2  0
  6  7  1  0
  7  8  2  0
  8  9  1  0
  9 10  2  0
 10 11  1  0
 11 12  1  0
 12 13  2  0
  2 14  1  0
 14 15  1  0
 15 16  1  0
 16 17  1  0
 15 18  1  0
 18 19  2  0
 19 20  1  0
 20 21  2  0
 21 22  1  0
 13  5  1  0
 22 18  1  0
 12  8  1  0
  3 23  1  0
  3 24  1  0
  4 25  1  0
  4 26  1  0
  6 27  1  0
  7 28  1  0
 10 29  1  0
 13 30  1  0
 14 31  1  0
 15 32  1  0
 16 33  1  0
 16 34  1  0
 17 35  1  0
 20 36  1  0
 21 37  1  0
 22 38  1  0
M  END
>  <Energy>  (108) 
90.606968776437341

>  <compound_id>  (108) 
12524

>  <target_id>  (108) 
1

>  <reference_id>  (108) 
68

>  <inspiration_ids>  (108) 
[64, 68]

>  <energy_score>  (108) 
-24.93909541516689

>  <distance_score>  (108) 
3.387059804752501

>  <path>  (108) 
/opt/xchem-fragalysis-2/maxwin/BulkDock/SCRATCH/511016/C12524-P68/C12524-P68.minimised.mol

>  <scratch_subdir>  (108) 
/opt/xchem-fragalysis-2/maxwin/BulkDock/SCRATCH/511016/C12524-P68

>  <fragmenstein_runtime>  (108) 
5.300601482391357

>  <fragmenstein_outcome>  (108) 
too moved

>  <fragmenstein_mode>  (108) 
expansion

>  <fragmenstein_error>  (108) 


$$$$
C12525-P64
     RDKit          3D

 39 41  0  0  0  0  0  0  0  0999 V2000
  -11.2937  -33.0301   19.9107 C   0  0  0  0  0  0  0  0  0  0  0  0
  -10.1924  -32.3747   20.5301 O   0  0  0  0  0  0  0  0  0  0  0  0
  -10.5408  -31.1185   21.1210 C   0  0  0  0  0  0  0  0  0  0  0  0
   -9.6635  -30.7532   22.3361 C   0  0  0  0  0  0  0  0  0  0  0  0
  -10.3311  -31.0303   23.6346 N   0  0  0  0  0  0  0  0  0  0  0  0
  -10.0810  -29.9231   24.7896 C   0  0  0  0  0  0  0  0  0  0  0  0
  -10.7462  -28.2749   25.1264 C   0  0  0  0  0  0  0  0  0  0  0  0
  -10.8664  -27.1608   24.4255 N   0  0  0  0  0  0  0  0  0  0  0  0
  -11.2182  -26.0987   25.2723 C   0  0  0  0  0  0  0  0  0  0  0  0
  -11.4298  -26.5339   26.5358 C   0  0  0  0  0  0  0  0  0  0  0  0
  -11.2986  -27.8720   26.3926 N   0  0  0  0  0  0  0  0  0  0  0  0
  -11.3964  -32.3633   23.8079 S   0  0  0  0  0  0  0  0  0  0  0  0
  -11.9233  -32.2562   25.1532 O   0  0  0  0  0  0  0  0  0  0  0  0
  -12.3692  -32.4848   22.7403 O   0  0  0  0  0  0  0  0  0  0  0  0
  -10.4810  -33.9237   23.7204 C   0  0  0  0  0  0  0  0  0  0  0  0
  -10.9543  -34.9902   24.4975 C   0  0  0  0  0  0  0  0  0  0  0  0
  -10.2611  -36.2095   24.5546 C   0  0  0  0  0  0  0  0  0  0  0  0
   -9.1046  -36.3979   23.7740 C   0  0  0  0  0  0  0  0  0  0  0  0
   -8.3041  -37.5298   23.7582 N   0  0  0  0  0  0  0  0  0  0  0  0
   -7.3450  -37.3731   22.8746 C   0  0  0  0  0  0  0  0  0  0  0  0
   -7.3201  -35.8834   22.0348 S   0  0  0  0  0  0  0  0  0  0  0  0
   -8.6975  -35.3602   22.9345 C   0  0  0  0  0  0  0  0  0  0  0  0
   -9.3577  -34.1107   22.9080 C   0  0  0  0  0  0  0  0  0  0  0  0
  -11.8821  -33.5772   20.6483 H   0  0  0  0  0  0  0  0  0  0  0  0
  -10.8950  -33.7617   19.2021 H   0  0  0  0  0  0  0  0  0  0  0  0
  -11.9306  -32.3261   19.3663 H   0  0  0  0  0  0  0  0  0  0  0  0
  -10.3993  -30.3364   20.3883 H   0  0  0  0  0  0  0  0  0  0  0  0
  -11.6094  -31.0717   21.3060 H   0  0  0  0  0  0  0  0  0  0  0  0
   -8.6904  -31.2494   22.3080 H   0  0  0  0  0  0  0  0  0  0  0  0
   -9.4597  -29.6781   22.2859 H   0  0  0  0  0  0  0  0  0  0  0  0
   -9.0006  -29.7518   24.7869 H   0  0  0  0  0  0  0  0  0  0  0  0
  -10.3033  -30.5032   25.6882 H   0  0  0  0  0  0  0  0  0  0  0  0
  -11.2490  -25.0752   24.9263 H   0  0  0  0  0  0  0  0  0  0  0  0
  -11.7108  -26.0424   27.4537 H   0  0  0  0  0  0  0  0  0  0  0  0
  -11.6453  -28.5503   27.0481 H   0  0  0  0  0  0  0  0  0  0  0  0
  -11.8548  -34.8743   25.0987 H   0  0  0  0  0  0  0  0  0  0  0  0
  -10.6117  -37.0131   25.1956 H   0  0  0  0  0  0  0  0  0  0  0  0
   -6.6086  -38.1419   22.6791 H   0  0  0  0  0  0  0  0  0  0  0  0
   -8.9614  -33.3330   22.2739 H   0  0  0  0  0  0  0  0  0  0  0  0
  1  2  1  0
  2  3  1  0
  3  4  1  0
  4  5  1  0
  5  6  1  0
  6  7  1  0
  7  8  2  0
  8  9  1  0
  9 10  2  0
 10 11  1  0
  5 12  1  0
 12 13  2  0
 12 14  2  0
 12 15  1  0
 15 16  2  0
 16 17  1  0
 17 18  2  0
 18 19  1  0
 19 20  2  0
 20 21  1  0
 21 22  1  0
 22 23  2  0
 11  7  1  0
 23 15  1  0
 22 18  1  0
  1 24  1  0
  1 25  1  0
  1 26  1  0
  3 27  1  0
  3 28  1  0
  4 29  1  0
  4 30  1  0
  6 31  1  0
  6 32  1  0
  9 33  1  0
 10 34  1  0
 11 35  1  0
 16 36  1  0
 17 37  1  0
 20 38  1  0
 23 39  1  0
M  END
>  <Energy>  (109) 
69.403191147072093

>  <compound_id>  (109) 
12525

>  <target_id>  (109) 
1

>  <reference_id>  (109) 
64

>  <inspiration_ids>  (109) 
[64, 68]

>  <energy_score>  (109) 
-24.000391591384556

>  <distance_score>  (109) 
1.9303940921354625

>  <path>  (109) 
/opt/xchem-fragalysis-2/maxwin/BulkDock/SCRATCH/511016/C12525-P64/C12525-P64.minimised.mol

>  <scratch_subdir>  (109) 
/opt/xchem-fragalysis-2/maxwin/BulkDock/SCRATCH/511016/C12525-P64

>  <fragmenstein_runtime>  (109) 
2.311990976333618

>  <fragmenstein_outcome>  (109) 
too moved

>  <fragmenstein_mode>  (109) 
expansion

>  <fragmenstein_error>  (109) 


$$$$
C12525-P68
     RDKit          3D

 39 41  0  0  0  0  0  0  0  0999 V2000
  -18.6780  -31.6347   26.2584 C   0  0  0  0  0  0  0  0  0  0  0  0
  -17.6475  -31.1514   27.1126 O   0  0  0  0  0  0  0  0  0  0  0  0
  -16.3652  -31.7050   26.8027 C   0  0  0  0  0  0  0  0  0  0  0  0
  -15.7076  -30.9758   25.6178 C   0  0  0  0  0  0  0  0  0  0  0  0
  -14.2659  -31.3089   25.4415 N   0  0  0  0  0  0  0  0  0  0  0  0
  -13.0944  -30.2394   26.1314 C   0  0  0  0  0  0  0  0  0  0  0  0
  -12.4737  -28.3258   25.7332 C   0  0  0  0  0  0  0  0  0  0  0  0
  -13.3136  -27.2672   25.5138 N   0  0  0  0  0  0  0  0  0  0  0  0
  -12.6671  -26.1335   25.9354 C   0  0  0  0  0  0  0  0  0  0  0  0
  -11.3295  -26.3936   26.1098 C   0  0  0  0  0  0  0  0  0  0  0  0
  -11.2567  -27.7403   26.2287 N   0  0  0  0  0  0  0  0  0  0  0  0
  -13.9821  -32.9976   25.2045 S   0  0  0  0  0  0  0  0  0  0  0  0
  -13.7052  -33.5465   26.5087 O   0  0  0  0  0  0  0  0  0  0  0  0
  -15.1160  -33.4966   24.4501 O   0  0  0  0  0  0  0  0  0  0  0  0
  -12.5622  -33.3761   24.1592 C   0  0  0  0  0  0  0  0  0  0  0  0
  -11.3782  -33.7906   24.7646 C   0  0  0  0  0  0  0  0  0  0  0  0
  -10.3646  -34.4668   24.0783 C   0  0  0  0  0  0  0  0  0  0  0  0
  -10.5791  -34.8313   22.7460 C   0  0  0  0  0  0  0  0  0  0  0  0
   -9.7277  -35.6093   21.9859 N   0  0  0  0  0  0  0  0  0  0  0  0
  -10.2874  -35.8468   20.8242 C   0  0  0  0  0  0  0  0  0  0  0  0
  -11.7909  -35.0814   20.5332 S   0  0  0  0  0  0  0  0  0  0  0  0
  -11.7683  -34.4304   22.1299 C   0  0  0  0  0  0  0  0  0  0  0  0
  -12.7599  -33.6727   22.8023 C   0  0  0  0  0  0  0  0  0  0  0  0
  -19.6243  -31.1932   26.5827 H   0  0  0  0  0  0  0  0  0  0  0  0
  -18.7596  -32.7233   26.3322 H   0  0  0  0  0  0  0  0  0  0  0  0
  -18.4967  -31.3378   25.2220 H   0  0  0  0  0  0  0  0  0  0  0  0
  -16.4613  -32.7823   26.6314 H   0  0  0  0  0  0  0  0  0  0  0  0
  -15.7442  -31.5885   27.6978 H   0  0  0  0  0  0  0  0  0  0  0  0
  -16.2357  -31.2519   24.6963 H   0  0  0  0  0  0  0  0  0  0  0  0
  -15.8334  -29.8938   25.6444 H   0  0  0  0  0  0  0  0  0  0  0  0
  -12.2717  -30.9351   26.2618 H   0  0  0  0  0  0  0  0  0  0  0  0
  -13.6892  -30.3823   27.0177 H   0  0  0  0  0  0  0  0  0  0  0  0
  -13.1515  -25.1651   25.9543 H   0  0  0  0  0  0  0  0  0  0  0  0
  -10.5092  -25.7324   26.3616 H   0  0  0  0  0  0  0  0  0  0  0  0
  -10.5237  -28.2418   26.7102 H   0  0  0  0  0  0  0  0  0  0  0  0
  -11.2303  -33.6671   25.8177 H   0  0  0  0  0  0  0  0  0  0  0  0
   -9.4627  -34.7884   24.5925 H   0  0  0  0  0  0  0  0  0  0  0  0
   -9.8207  -36.4741   20.0760 H   0  0  0  0  0  0  0  0  0  0  0  0
  -13.7044  -33.4570   22.3081 H   0  0  0  0  0  0  0  0  0  0  0  0
  1  2  1  0
  2  3  1  0
  3  4  1  0
  4  5  1  0
  5  6  1  0
  6  7  1  0
  7  8  2  0
  8  9  1  0
  9 10  2  0
 10 11  1  0
  5 12  1  0
 12 13  2  0
 12 14  2  0
 12 15  1  0
 15 16  2  0
 16 17  1  0
 17 18  2  0
 18 19  1  0
 19 20  2  0
 20 21  1  0
 21 22  1  0
 22 23  2  0
 11  7  1  0
 23 15  1  0
 22 18  1  0
  1 24  1  0
  1 25  1  0
  1 26  1  0
  3 27  1  0
  3 28  1  0
  4 29  1  0
  4 30  1  0
  6 31  1  0
  6 32  1  0
  9 33  1  0
 10 34  1  0
 11 35  1  0
 16 36  1  0
 17 37  1  0
 20 38  1  0
 23 39  1  0
M  END
>  <Energy>  (110) 
143.77791278359825

>  <compound_id>  (110) 
12525

>  <target_id>  (110) 
1

>  <reference_id>  (110) 
68

>  <inspiration_ids>  (110) 
[64, 68]

>  <energy_score>  (110) 
55.85614114152634

>  <distance_score>  (110) 
3.3210543044914993

>  <path>  (110) 
/opt/xchem-fragalysis-2/maxwin/BulkDock/SCRATCH/511016/C12525-P68/C12525-P68.minimised.mol

>  <scratch_subdir>  (110) 
/opt/xchem-fragalysis-2/maxwin/BulkDock/SCRATCH/511016/C12525-P68

>  <fragmenstein_runtime>  (110) 
10.957736015319824

>  <fragmenstein_outcome>  (110) 
too moved

>  <fragmenstein_mode>  (110) 
expansion

>  <fragmenstein_error>  (110) 


$$$$
C12530-P64
     RDKit          3D

 40 43  0  0  0  0  0  0  0  0999 V2000
  -10.8321  -30.5257   25.7884 O   0  0  0  0  0  0  0  0  0  0  0  0
  -10.2616  -29.2927   24.9694 C   0  0  0  0  0  0  0  0  0  0  0  0
   -9.8320  -29.7766   24.0928 N   0  0  0  0  0  0  0  0  0  0  0  0
   -9.5296  -31.1707   23.4657 C   0  0  0  0  0  0  0  0  0  0  0  0
  -10.3924  -32.2439   23.7448 C   0  0  0  0  0  0  0  0  0  0  0  0
  -10.1788  -33.5446   23.2560 C   0  0  0  0  0  0  0  0  0  0  0  0
   -9.0588  -33.8125   22.4565 C   0  0  0  0  0  0  0  0  0  0  0  0
   -8.6815  -35.0591   21.9791 N   0  0  0  0  0  0  0  0  0  0  0  0
   -7.5712  -34.9359   21.2886 C   0  0  0  0  0  0  0  0  0  0  0  0
   -6.9545  -33.3502   21.1110 S   0  0  0  0  0  0  0  0  0  0  0  0
   -8.2254  -32.7474   22.1106 C   0  0  0  0  0  0  0  0  0  0  0  0
   -8.4516  -31.4276   22.5717 C   0  0  0  0  0  0  0  0  0  0  0  0
  -10.1842  -27.7899   25.3189 N   0  0  0  0  0  0  0  0  0  0  0  0
  -10.5200  -27.0170   26.5908 C   0  0  0  0  0  0  0  0  0  0  0  0
  -11.7471  -27.3402   27.4133 C   0  0  0  0  0  0  0  0  0  0  0  0
  -12.8882  -26.5298   26.8464 C   0  0  0  0  0  0  0  0  0  0  0  0
  -14.2968  -26.9946   27.0211 C   0  0  0  0  0  0  0  0  0  0  0  0
  -14.8505  -28.0115   27.7689 C   0  0  0  0  0  0  0  0  0  0  0  0
  -16.2023  -27.8394   27.6672 N   0  0  0  0  0  0  0  0  0  0  0  0
  -16.4234  -26.7848   26.8338 C   0  0  0  0  0  0  0  0  0  0  0  0
  -15.2971  -26.2673   26.4117 N   0  0  0  0  0  0  0  0  0  0  0  0
  -12.5937  -26.2730   25.4147 C   0  0  0  0  0  0  0  0  0  0  0  0
  -11.4120  -27.0642   24.8436 C   0  0  0  0  0  0  0  0  0  0  0  0
   -9.3060  -29.8081   23.2463 H   0  0  0  0  0  0  0  0  0  0  0  0
  -11.2789  -32.0971   24.3533 H   0  0  0  0  0  0  0  0  0  0  0  0
  -10.8567  -34.3482   23.5240 H   0  0  0  0  0  0  0  0  0  0  0  0
   -7.0744  -35.7837   20.8366 H   0  0  0  0  0  0  0  0  0  0  0  0
   -7.7404  -30.6510   22.2986 H   0  0  0  0  0  0  0  0  0  0  0  0
  -10.4248  -25.9212   26.4703 H   0  0  0  0  0  0  0  0  0  0  0  0
   -9.6452  -27.1637   27.2348 H   0  0  0  0  0  0  0  0  0  0  0  0
  -11.9599  -28.4004   27.4971 H   0  0  0  0  0  0  0  0  0  0  0  0
  -11.4761  -27.0007   28.4132 H   0  0  0  0  0  0  0  0  0  0  0  0
  -12.8345  -25.5304   27.3014 H   0  0  0  0  0  0  0  0  0  0  0  0
  -14.4270  -28.7767   28.4032 H   0  0  0  0  0  0  0  0  0  0  0  0
  -16.9141  -28.3716   28.1483 H   0  0  0  0  0  0  0  0  0  0  0  0
  -17.4167  -26.4354   26.5866 H   0  0  0  0  0  0  0  0  0  0  0  0
  -12.3758  -25.1959   25.3251 H   0  0  0  0  0  0  0  0  0  0  0  0
  -13.4603  -26.4037   24.7570 H   0  0  0  0  0  0  0  0  0  0  0  0
  -11.8040  -27.5890   23.9980 H   0  0  0  0  0  0  0  0  0  0  0  0
  -10.9003  -26.1871   24.4449 H   0  0  0  0  0  0  0  0  0  0  0  0
  1  2  2  0
  2  3  1  0
  3  4  1  0
  4  5  2  0
  5  6  1  0
  6  7  2  0
  7  8  1  0
  8  9  2  0
  9 10  1  0
 10 11  1  0
 11 12  2  0
  2 13  1  0
 13 14  1  0
 14 15  1  0
 15 16  1  0
 16 17  1  0
 17 18  2  0
 18 19  1  0
 19 20  1  0
 20 21  2  0
 16 22  1  0
 22 23  1  0
 12  4  1  0
 23 13  1  0
 11  7  1  0
 21 17  1  0
  3 24  1  0
  5 25  1  0
  6 26  1  0
  9 27  1  0
 12 28  1  0
 14 29  1  0
 14 30  1  0
 15 31  1  0
 15 32  1  0
 16 33  1  0
 18 34  1  0
 19 35  1  0
 20 36  1  0
 22 37  1  0
 22 38  1  0
 23 39  1  0
 23 40  1  0
M  END
>  <Energy>  (111) 
295.10791367552838

>  <compound_id>  (111) 
12530

>  <target_id>  (111) 
1

>  <reference_id>  (111) 
64

>  <inspiration_ids>  (111) 
[64, 68]

>  <energy_score>  (111) 
264.51849079535566

>  <distance_score>  (111) 
4.220423475012276

>  <path>  (111) 
/opt/xchem-fragalysis-2/maxwin/BulkDock/SCRATCH/511016/C12530-P64/C12530-P64.minimised.mol

>  <scratch_subdir>  (111) 
/opt/xchem-fragalysis-2/maxwin/BulkDock/SCRATCH/511016/C12530-P64

>  <fragmenstein_runtime>  (111) 
6.15777063369751

>  <fragmenstein_outcome>  (111) 
too moved

>  <fragmenstein_mode>  (111) 
expansion

>  <fragmenstein_error>  (111) 


$$$$
C12530-P68
     RDKit          3D

 40 43  0  0  0  0  0  0  0  0999 V2000
  -10.2927  -30.3222   22.2923 O   0  0  0  0  0  0  0  0  0  0  0  0
   -9.6398  -30.3825   23.3107 C   0  0  0  0  0  0  0  0  0  0  0  0
   -9.1319  -31.9478   23.8035 N   0  0  0  0  0  0  0  0  0  0  0  0
   -9.4326  -33.3051   23.2885 C   0  0  0  0  0  0  0  0  0  0  0  0
   -9.1286  -34.3723   24.1711 C   0  0  0  0  0  0  0  0  0  0  0  0
   -9.3930  -35.6986   23.8442 C   0  0  0  0  0  0  0  0  0  0  0  0
  -10.0311  -35.9727   22.6288 C   0  0  0  0  0  0  0  0  0  0  0  0
  -10.3210  -37.2403   22.1582 N   0  0  0  0  0  0  0  0  0  0  0  0
  -10.9409  -37.1418   21.0079 C   0  0  0  0  0  0  0  0  0  0  0  0
  -11.2520  -35.5583   20.4445 S   0  0  0  0  0  0  0  0  0  0  0  0
  -10.4285  -34.9063   21.8125 C   0  0  0  0  0  0  0  0  0  0  0  0
  -10.1660  -33.5538   22.1317 C   0  0  0  0  0  0  0  0  0  0  0  0
   -9.3422  -28.7325   24.6178 N   0  0  0  0  0  0  0  0  0  0  0  0
   -9.8388  -27.5604   24.5945 C   0  0  0  0  0  0  0  0  0  0  0  0
  -10.5121  -26.0833   25.5766 C   0  0  0  0  0  0  0  0  0  0  0  0
  -11.8303  -26.2931   26.2411 C   0  0  0  0  0  0  0  0  0  0  0  0
  -13.4189  -26.5037   25.7595 C   0  0  0  0  0  0  0  0  0  0  0  0
  -14.1618  -26.5504   24.5835 C   0  0  0  0  0  0  0  0  0  0  0  0
  -15.5010  -26.6463   24.7362 N   0  0  0  0  0  0  0  0  0  0  0  0
  -15.6309  -26.2971   25.9906 C   0  0  0  0  0  0  0  0  0  0  0  0
  -14.4555  -26.3266   26.6599 N   0  0  0  0  0  0  0  0  0  0  0  0
  -10.9489  -27.3371   27.0250 C   0  0  0  0  0  0  0  0  0  0  0  0
  -10.4338  -28.3225   26.0527 C   0  0  0  0  0  0  0  0  0  0  0  0
   -8.5668  -31.8401   24.5510 H   0  0  0  0  0  0  0  0  0  0  0  0
   -8.6415  -34.1729   25.1234 H   0  0  0  0  0  0  0  0  0  0  0  0
   -9.1039  -36.5088   24.5061 H   0  0  0  0  0  0  0  0  0  0  0  0
  -11.2586  -38.0121   20.4487 H   0  0  0  0  0  0  0  0  0  0  0  0
  -10.4994  -32.7532   21.4811 H   0  0  0  0  0  0  0  0  0  0  0  0
   -8.9327  -27.1645   24.8912 H   0  0  0  0  0  0  0  0  0  0  0  0
  -10.7104  -27.3924   23.9741 H   0  0  0  0  0  0  0  0  0  0  0  0
   -9.7501  -25.7836   26.3030 H   0  0  0  0  0  0  0  0  0  0  0  0
  -10.3836  -25.0915   25.1793 H   0  0  0  0  0  0  0  0  0  0  0  0
  -11.9742  -25.2618   26.5793 H   0  0  0  0  0  0  0  0  0  0  0  0
  -14.0083  -26.4673   23.5447 H   0  0  0  0  0  0  0  0  0  0  0  0
  -16.2120  -26.6430   24.0134 H   0  0  0  0  0  0  0  0  0  0  0  0
  -16.6070  -26.0349   26.3952 H   0  0  0  0  0  0  0  0  0  0  0  0
  -11.4197  -27.9515   27.7805 H   0  0  0  0  0  0  0  0  0  0  0  0
  -10.1480  -26.9255   27.6387 H   0  0  0  0  0  0  0  0  0  0  0  0
  -10.0992  -29.0581   26.8192 H   0  0  0  0  0  0  0  0  0  0  0  0
  -11.4660  -28.2245   25.5887 H   0  0  0  0  0  0  0  0  0  0  0  0
  1  2  2  0
  2  3  1  0
  3  4  1  0
  4  5  2  0
  5  6  1  0
  6  7  2  0
  7  8  1  0
  8  9  2  0
  9 10  1  0
 10 11  1  0
 11 12  2  0
  2 13  1  0
 13 14  1  0
 14 15  1  0
 15 16  1  0
 16 17  1  0
 17 18  2  0
 18 19  1  0
 19 20  1  0
 20 21  2  0
 16 22  1  0
 22 23  1  0
 12  4  1  0
 23 13  1  0
 11  7  1  0
 21 17  1  0
  3 24  1  0
  5 25  1  0
  6 26  1  0
  9 27  1  0
 12 28  1  0
 14 29  1  0
 14 30  1  0
 15 31  1  0
 15 32  1  0
 16 33  1  0
 18 34  1  0
 19 35  1  0
 20 36  1  0
 22 37  1  0
 22 38  1  0
 23 39  1  0
 23 40  1  0
M  END
>  <Energy>  (112) 
642.66352767988246

>  <compound_id>  (112) 
12530

>  <target_id>  (112) 
1

>  <reference_id>  (112) 
68

>  <inspiration_ids>  (112) 
[64, 68]

>  <energy_score>  (112) 
612.0741047997099

>  <distance_score>  (112) 
3.5661909305179473

>  <path>  (112) 
/opt/xchem-fragalysis-2/maxwin/BulkDock/SCRATCH/511016/C12530-P68/C12530-P68.minimised.mol

>  <scratch_subdir>  (112) 
/opt/xchem-fragalysis-2/maxwin/BulkDock/SCRATCH/511016/C12530-P68

>  <fragmenstein_runtime>  (112) 
13.775690078735352

>  <fragmenstein_outcome>  (112) 
too moved

>  <fragmenstein_mode>  (112) 
expansion

>  <fragmenstein_error>  (112) 


$$$$
C12531-P64
     RDKit          3D

 35 38  0  0  0  0  0  0  0  0999 V2000
  -10.3992  -31.0061   26.0261 O   0  0  0  0  0  0  0  0  0  0  0  0
  -10.3016  -30.4942   24.9696 C   0  0  0  0  0  0  0  0  0  0  0  0
  -10.3286  -28.9531   24.5659 N   0  0  0  0  0  0  0  0  0  0  0  0
  -10.5854  -27.7273   25.4052 C   0  0  0  0  0  0  0  0  0  0  0  0
   -9.7619  -27.2563   26.4373 C   0  0  0  0  0  0  0  0  0  0  0  0
  -10.0450  -26.3194   27.4592 C   0  0  0  0  0  0  0  0  0  0  0  0
  -11.2031  -25.6322   27.3874 C   0  0  0  0  0  0  0  0  0  0  0  0
  -11.9804  -25.9257   26.2801 C   0  0  0  0  0  0  0  0  0  0  0  0
  -13.2392  -25.2921   26.1395 C   0  0  0  0  0  0  0  0  0  0  0  0
  -13.6068  -24.1631   25.4604 C   0  0  0  0  0  0  0  0  0  0  0  0
  -14.9607  -24.1657   25.2626 N   0  0  0  0  0  0  0  0  0  0  0  0
  -15.4054  -25.2272   25.8963 C   0  0  0  0  0  0  0  0  0  0  0  0
  -14.3959  -25.9317   26.4685 N   0  0  0  0  0  0  0  0  0  0  0  0
  -11.6686  -26.9046   25.2758 C   0  0  0  0  0  0  0  0  0  0  0  0
  -10.2144  -31.5884   23.8509 C   0  0  0  0  0  0  0  0  0  0  0  0
  -11.1100  -32.6746   24.0561 C   0  0  0  0  0  0  0  0  0  0  0  0
  -10.8345  -34.0086   23.6676 C   0  0  0  0  0  0  0  0  0  0  0  0
   -9.6278  -34.3048   23.0158 C   0  0  0  0  0  0  0  0  0  0  0  0
   -9.1328  -35.5793   22.7438 N   0  0  0  0  0  0  0  0  0  0  0  0
   -7.9909  -35.4726   22.1052 C   0  0  0  0  0  0  0  0  0  0  0  0
   -7.4792  -33.8783   21.7419 S   0  0  0  0  0  0  0  0  0  0  0  0
   -8.8144  -33.2265   22.6464 C   0  0  0  0  0  0  0  0  0  0  0  0
   -9.0841  -31.8688   23.0606 C   0  0  0  0  0  0  0  0  0  0  0  0
  -10.3012  -28.8655   23.5560 H   0  0  0  0  0  0  0  0  0  0  0  0
   -8.7507  -27.6478   26.4703 H   0  0  0  0  0  0  0  0  0  0  0  0
   -9.3285  -26.1329   28.2493 H   0  0  0  0  0  0  0  0  0  0  0  0
  -11.4760  -24.8866   28.1247 H   0  0  0  0  0  0  0  0  0  0  0  0
  -12.9718  -23.3990   25.0289 H   0  0  0  0  0  0  0  0  0  0  0  0
  -16.4420  -25.5270   25.9759 H   0  0  0  0  0  0  0  0  0  0  0  0
  -14.4817  -26.8094   26.9624 H   0  0  0  0  0  0  0  0  0  0  0  0
  -12.3703  -27.0622   24.4724 H   0  0  0  0  0  0  0  0  0  0  0  0
  -11.9847  -32.5175   24.6873 H   0  0  0  0  0  0  0  0  0  0  0  0
  -11.5030  -34.8128   23.9584 H   0  0  0  0  0  0  0  0  0  0  0  0
   -7.4157  -36.3335   21.7923 H   0  0  0  0  0  0  0  0  0  0  0  0
   -8.3209  -31.1095   22.9057 H   0  0  0  0  0  0  0  0  0  0  0  0
  1  2  2  0
  2  3  1  0
  3  4  1  0
  4  5  2  0
  5  6  1  0
  6  7  2  0
  7  8  1  0
  8  9  1  0
  9 10  2  0
 10 11  1  0
 11 12  2  0
 12 13  1  0
  8 14  2  0
  2 15  1  0
 15 16  2  0
 16 17  1  0
 17 18  2  0
 18 19  1  0
 19 20  2  0
 20 21  1  0
 21 22  1  0
 22 23  2  0
 14  4  1  0
 23 15  1  0
 13  9  1  0
 22 18  1  0
  3 24  1  0
  5 25  1  0
  6 26  1  0
  7 27  1  0
 10 28  1  0
 12 29  1  0
 13 30  1  0
 14 31  1  0
 16 32  1  0
 17 33  1  0
 20 34  1  0
 23 35  1  0
M  END
>  <Energy>  (113) 
111.43131517984321

>  <compound_id>  (113) 
12531

>  <target_id>  (113) 
1

>  <reference_id>  (113) 
64

>  <inspiration_ids>  (113) 
[64, 68]

>  <energy_score>  (113) 
11.773614253638982

>  <distance_score>  (113) 
3.301126614108754

>  <path>  (113) 
/opt/xchem-fragalysis-2/maxwin/BulkDock/SCRATCH/511016/C12531-P64/C12531-P64.minimised.mol

>  <scratch_subdir>  (113) 
/opt/xchem-fragalysis-2/maxwin/BulkDock/SCRATCH/511016/C12531-P64

>  <fragmenstein_runtime>  (113) 
7.076914072036743

>  <fragmenstein_outcome>  (113) 
too moved

>  <fragmenstein_mode>  (113) 
expansion

>  <fragmenstein_error>  (113) 


$$$$
C12531-P68
     RDKit          3D

 35 38  0  0  0  0  0  0  0  0999 V2000
  -12.0917  -28.7586   19.2653 O   0  0  0  0  0  0  0  0  0  0  0  0
  -11.4389  -29.4676   20.0286 C   0  0  0  0  0  0  0  0  0  0  0  0
  -10.5011  -29.0310   21.5626 N   0  0  0  0  0  0  0  0  0  0  0  0
  -10.3034  -27.2969   22.6550 C   0  0  0  0  0  0  0  0  0  0  0  0
   -9.4115  -27.8068   24.2895 C   0  0  0  0  0  0  0  0  0  0  0  0
   -9.9371  -28.0696   25.9590 C   0  0  0  0  0  0  0  0  0  0  0  0
  -10.8103  -27.3687   26.6692 C   0  0  0  0  0  0  0  0  0  0  0  0
  -11.3317  -26.5589   25.7893 C   0  0  0  0  0  0  0  0  0  0  0  0
  -12.7062  -26.0655   25.9759 C   0  0  0  0  0  0  0  0  0  0  0  0
  -13.2682  -24.8288   25.7988 C   0  0  0  0  0  0  0  0  0  0  0  0
  -14.5567  -24.9827   25.3518 N   0  0  0  0  0  0  0  0  0  0  0  0
  -14.8239  -26.2600   25.3589 C   0  0  0  0  0  0  0  0  0  0  0  0
  -13.7933  -26.8980   25.9407 N   0  0  0  0  0  0  0  0  0  0  0  0
  -11.0011  -27.2127   24.3712 C   0  0  0  0  0  0  0  0  0  0  0  0
  -11.3675  -31.0371   19.9083 C   0  0  0  0  0  0  0  0  0  0  0  0
  -11.0731  -31.8057   21.0706 C   0  0  0  0  0  0  0  0  0  0  0  0
  -11.2347  -33.1950   21.1703 C   0  0  0  0  0  0  0  0  0  0  0  0
  -11.8053  -33.8749   20.0977 C   0  0  0  0  0  0  0  0  0  0  0  0
  -11.9817  -35.2444   20.0361 N   0  0  0  0  0  0  0  0  0  0  0  0
  -12.5572  -35.5439   18.8967 C   0  0  0  0  0  0  0  0  0  0  0  0
  -12.9524  -34.2283   17.8704 S   0  0  0  0  0  0  0  0  0  0  0  0
  -12.2512  -33.1281   19.0005 C   0  0  0  0  0  0  0  0  0  0  0  0
  -12.0933  -31.7131   18.9131 C   0  0  0  0  0  0  0  0  0  0  0  0
  -10.0048  -29.8244   21.9174 H   0  0  0  0  0  0  0  0  0  0  0  0
   -8.5959  -28.4666   23.8334 H   0  0  0  0  0  0  0  0  0  0  0  0
   -9.5098  -28.8473   26.6286 H   0  0  0  0  0  0  0  0  0  0  0  0
  -11.0036  -27.7182   27.6528 H   0  0  0  0  0  0  0  0  0  0  0  0
  -12.8061  -23.8463   25.8357 H   0  0  0  0  0  0  0  0  0  0  0  0
  -15.7460  -26.7260   25.0375 H   0  0  0  0  0  0  0  0  0  0  0  0
  -13.7544  -27.8661   26.2142 H   0  0  0  0  0  0  0  0  0  0  0  0
  -11.8237  -27.9297   24.6554 H   0  0  0  0  0  0  0  0  0  0  0  0
  -10.7671  -31.3766   22.0087 H   0  0  0  0  0  0  0  0  0  0  0  0
  -10.9484  -33.7360   22.0663 H   0  0  0  0  0  0  0  0  0  0  0  0
  -12.7891  -36.5630   18.6161 H   0  0  0  0  0  0  0  0  0  0  0  0
  -12.5002  -31.1679   18.0654 H   0  0  0  0  0  0  0  0  0  0  0  0
  1  2  2  0
  2  3  1  0
  3  4  1  0
  4  5  2  0
  5  6  1  0
  6  7  2  0
  7  8  1  0
  8  9  1  0
  9 10  2  0
 10 11  1  0
 11 12  2  0
 12 13  1  0
  8 14  2  0
  2 15  1  0
 15 16  2  0
 16 17  1  0
 17 18  2  0
 18 19  1  0
 19 20  2  0
 20 21  1  0
 21 22  1  0
 22 23  2  0
 14  4  1  0
 23 15  1  0
 13  9  1  0
 22 18  1  0
  3 24  1  0
  5 25  1  0
  6 26  1  0
  7 27  1  0
 10 28  1  0
 12 29  1  0
 13 30  1  0
 14 31  1  0
 16 32  1  0
 17 33  1  0
 20 34  1  0
 23 35  1  0
M  END
>  <Energy>  (114) 
713.8977826685699

>  <compound_id>  (114) 
12531

>  <target_id>  (114) 
1

>  <reference_id>  (114) 
68

>  <inspiration_ids>  (114) 
[64, 68]

>  <energy_score>  (114) 
623.3971945031489

>  <distance_score>  (114) 
5.019922824844786

>  <path>  (114) 
/opt/xchem-fragalysis-2/maxwin/BulkDock/SCRATCH/511016/C12531-P68/C12531-P68.minimised.mol

>  <scratch_subdir>  (114) 
/opt/xchem-fragalysis-2/maxwin/BulkDock/SCRATCH/511016/C12531-P68

>  <fragmenstein_runtime>  (114) 
10.538220882415771

>  <fragmenstein_outcome>  (114) 
too moved

>  <fragmenstein_mode>  (114) 
expansion

>  <fragmenstein_error>  (114) 


$$$$
C12532-P64
     RDKit          3D

 40 42  0  0  0  0  0  0  0  0999 V2000
  -13.5476  -26.1939   25.5963 C   0  0  0  0  0  0  0  0  0  0  0  0
  -12.3026  -26.1564   26.3914 C   0  0  0  0  0  0  0  0  0  0  0  0
  -12.1422  -25.2618   27.3449 N   0  0  0  0  0  0  0  0  0  0  0  0
  -10.9222  -25.4952   27.8869 C   0  0  0  0  0  0  0  0  0  0  0  0
  -10.3253  -26.5533   27.2533 C   0  0  0  0  0  0  0  0  0  0  0  0
  -11.1880  -26.9916   26.2673 N   0  0  0  0  0  0  0  0  0  0  0  0
  -10.8053  -27.7561   25.0458 C   0  0  0  0  0  0  0  0  0  0  0  0
  -10.0449  -29.2052   24.9706 C   0  0  0  0  0  0  0  0  0  0  0  0
   -9.8978  -30.1983   23.9467 N   0  0  0  0  0  0  0  0  0  0  0  0
  -10.5874  -31.5825   23.7766 C   0  0  0  0  0  0  0  0  0  0  0  0
  -11.3209  -32.1554   24.4847 O   0  0  0  0  0  0  0  0  0  0  0  0
  -10.1931  -32.1089   22.4052 C   0  0  0  0  0  0  0  0  0  0  0  0
  -10.9220  -33.4253   22.1017 C   0  0  0  0  0  0  0  0  0  0  0  0
  -10.1827  -34.6188   22.6631 C   0  0  0  0  0  0  0  0  0  0  0  0
  -10.5334  -35.1795   23.8939 C   0  0  0  0  0  0  0  0  0  0  0  0
   -9.7950  -36.2373   24.4389 C   0  0  0  0  0  0  0  0  0  0  0  0
   -8.6904  -36.7551   23.7353 C   0  0  0  0  0  0  0  0  0  0  0  0
   -7.8629  -37.7852   24.1553 N   0  0  0  0  0  0  0  0  0  0  0  0
   -6.9678  -38.0280   23.2252 C   0  0  0  0  0  0  0  0  0  0  0  0
   -7.0179  -37.0352   21.8337 S   0  0  0  0  0  0  0  0  0  0  0  0
   -8.3696  -36.2020   22.4950 C   0  0  0  0  0  0  0  0  0  0  0  0
   -9.0924  -35.1339   21.9466 C   0  0  0  0  0  0  0  0  0  0  0  0
  -14.0030  -25.1977   25.5651 H   0  0  0  0  0  0  0  0  0  0  0  0
  -14.2714  -26.8651   26.0663 H   0  0  0  0  0  0  0  0  0  0  0  0
  -13.3796  -26.4941   24.5684 H   0  0  0  0  0  0  0  0  0  0  0  0
  -10.5336  -24.8916   28.6975 H   0  0  0  0  0  0  0  0  0  0  0  0
   -9.3366  -26.9591   27.3877 H   0  0  0  0  0  0  0  0  0  0  0  0
  -10.1221  -27.0309   24.6530 H   0  0  0  0  0  0  0  0  0  0  0  0
  -11.6546  -27.7019   24.3799 H   0  0  0  0  0  0  0  0  0  0  0  0
   -9.0133  -29.0613   25.2795 H   0  0  0  0  0  0  0  0  0  0  0  0
  -10.5818  -29.8716   25.6335 H   0  0  0  0  0  0  0  0  0  0  0  0
   -9.2582  -30.0417   23.1769 H   0  0  0  0  0  0  0  0  0  0  0  0
   -9.1042  -32.2191   22.3582 H   0  0  0  0  0  0  0  0  0  0  0  0
  -10.4985  -31.3637   21.6614 H   0  0  0  0  0  0  0  0  0  0  0  0
  -10.9862  -33.5492   21.0124 H   0  0  0  0  0  0  0  0  0  0  0  0
  -11.9603  -33.4179   22.4555 H   0  0  0  0  0  0  0  0  0  0  0  0
  -11.3743  -34.7795   24.4588 H   0  0  0  0  0  0  0  0  0  0  0  0
  -10.0636  -36.6561   25.4036 H   0  0  0  0  0  0  0  0  0  0  0  0
   -6.2265  -38.8097   23.3303 H   0  0  0  0  0  0  0  0  0  0  0  0
   -8.7965  -34.7079   20.9917 H   0  0  0  0  0  0  0  0  0  0  0  0
  1  2  1  0
  2  3  2  0
  3  4  1  0
  4  5  2  0
  5  6  1  0
  6  7  1  0
  7  8  1  0
  8  9  1  0
  9 10  1  0
 10 11  2  0
 10 12  1  0
 12 13  1  0
 13 14  1  0
 14 15  2  0
 15 16  1  0
 16 17  2  0
 17 18  1  0
 18 19  2  0
 19 20  1  0
 20 21  1  0
 21 22  2  0
  6  2  1  0
 22 14  1  0
 21 17  1  0
  1 23  1  0
  1 24  1  0
  1 25  1  0
  4 26  1  0
  5 27  1  0
  7 28  1  0
  7 29  1  0
  8 30  1  0
  8 31  1  0
  9 32  1  0
 12 33  1  0
 12 34  1  0
 13 35  1  0
 13 36  1  0
 15 37  1  0
 16 38  1  0
 19 39  1  0
 22 40  1  0
M  END
>  <Energy>  (115) 
62.410652861578207

>  <compound_id>  (115) 
12532

>  <target_id>  (115) 
1

>  <reference_id>  (115) 
64

>  <inspiration_ids>  (115) 
[64, 68]

>  <energy_score>  (115) 
12.379196633632887

>  <distance_score>  (115) 
1.2367097800258167

>  <path>  (115) 
/opt/xchem-fragalysis-2/maxwin/BulkDock/SCRATCH/511016/C12532-P64/C12532-P64.minimised.mol

>  <scratch_subdir>  (115) 
/opt/xchem-fragalysis-2/maxwin/BulkDock/SCRATCH/511016/C12532-P64

>  <fragmenstein_runtime>  (115) 
3.101109743118286

>  <fragmenstein_outcome>  (115) 
too moved

>  <fragmenstein_mode>  (115) 
expansion

>  <fragmenstein_error>  (115) 


$$$$
C12532-P68
     RDKit          3D

 40 42  0  0  0  0  0  0  0  0999 V2000
  -13.1995  -26.4810   26.0937 C   0  0  0  0  0  0  0  0  0  0  0  0
  -11.7351  -26.6628   26.0058 C   0  0  0  0  0  0  0  0  0  0  0  0
  -10.9721  -25.8548   25.3369 N   0  0  0  0  0  0  0  0  0  0  0  0
  -10.3321  -25.1383   26.2418 C   0  0  0  0  0  0  0  0  0  0  0  0
  -10.1395  -26.0304   27.2132 C   0  0  0  0  0  0  0  0  0  0  0  0
  -10.8045  -27.1802   26.8529 N   0  0  0  0  0  0  0  0  0  0  0  0
  -10.0735  -28.3811   26.5351 C   0  0  0  0  0  0  0  0  0  0  0  0
   -9.4626  -28.2393   24.7060 C   0  0  0  0  0  0  0  0  0  0  0  0
   -8.9842  -29.9375   23.5801 N   0  0  0  0  0  0  0  0  0  0  0  0
  -10.1189  -31.1977   22.7823 C   0  0  0  0  0  0  0  0  0  0  0  0
  -11.3373  -31.1493   22.7194 O   0  0  0  0  0  0  0  0  0  0  0  0
   -9.6353  -32.5524   22.2183 C   0  0  0  0  0  0  0  0  0  0  0  0
  -10.7704  -33.5858   21.8594 C   0  0  0  0  0  0  0  0  0  0  0  0
  -10.4737  -34.9075   22.5656 C   0  0  0  0  0  0  0  0  0  0  0  0
  -11.1616  -35.2450   23.7347 C   0  0  0  0  0  0  0  0  0  0  0  0
  -10.7722  -36.3511   24.5014 C   0  0  0  0  0  0  0  0  0  0  0  0
   -9.6560  -37.1206   24.1169 C   0  0  0  0  0  0  0  0  0  0  0  0
   -9.1320  -38.1972   24.8091 N   0  0  0  0  0  0  0  0  0  0  0  0
   -8.0715  -38.6545   24.1807 C   0  0  0  0  0  0  0  0  0  0  0  0
   -7.6596  -37.8627   22.7178 S   0  0  0  0  0  0  0  0  0  0  0  0
   -8.9892  -36.7868   22.9395 C   0  0  0  0  0  0  0  0  0  0  0  0
   -9.3995  -35.7076   22.1399 C   0  0  0  0  0  0  0  0  0  0  0  0
  -13.4707  -25.4859   25.7232 H   0  0  0  0  0  0  0  0  0  0  0  0
  -13.5411  -26.5298   27.1109 H   0  0  0  0  0  0  0  0  0  0  0  0
  -13.7672  -27.1879   25.4968 H   0  0  0  0  0  0  0  0  0  0  0  0
  -10.0454  -24.1191   26.1748 H   0  0  0  0  0  0  0  0  0  0  0  0
   -9.7996  -25.8304   28.2071 H   0  0  0  0  0  0  0  0  0  0  0  0
   -9.3021  -28.6120   27.2892 H   0  0  0  0  0  0  0  0  0  0  0  0
  -10.6938  -29.1284   27.0103 H   0  0  0  0  0  0  0  0  0  0  0  0
  -10.4022  -27.7323   24.4664 H   0  0  0  0  0  0  0  0  0  0  0  0
   -8.8581  -27.4458   24.7794 H   0  0  0  0  0  0  0  0  0  0  0  0
   -8.0430  -30.2657   23.5632 H   0  0  0  0  0  0  0  0  0  0  0  0
   -9.0289  -32.5662   21.3337 H   0  0  0  0  0  0  0  0  0  0  0  0
   -9.3375  -32.9916   23.1638 H   0  0  0  0  0  0  0  0  0  0  0  0
  -10.7921  -33.7577   20.7764 H   0  0  0  0  0  0  0  0  0  0  0  0
  -11.7781  -33.2559   22.1294 H   0  0  0  0  0  0  0  0  0  0  0  0
  -11.9902  -34.6302   24.0806 H   0  0  0  0  0  0  0  0  0  0  0  0
  -11.3025  -36.6100   25.4110 H   0  0  0  0  0  0  0  0  0  0  0  0
   -7.4879  -39.4847   24.5629 H   0  0  0  0  0  0  0  0  0  0  0  0
   -8.8451  -35.4721   21.2430 H   0  0  0  0  0  0  0  0  0  0  0  0
  1  2  1  0
  2  3  2  0
  3  4  1  0
  4  5  2  0
  5  6  1  0
  6  7  1  0
  7  8  1  0
  8  9  1  0
  9 10  1  0
 10 11  2  0
 10 12  1  0
 12 13  1  0
 13 14  1  0
 14 15  2  0
 15 16  1  0
 16 17  2  0
 17 18  1  0
 18 19  2  0
 19 20  1  0
 20 21  1  0
 21 22  2  0
  6  2  1  0
 22 14  1  0
 21 17  1  0
  1 23  1  0
  1 24  1  0
  1 25  1  0
  4 26  1  0
  5 27  1  0
  7 28  1  0
  7 29  1  0
  8 30  1  0
  8 31  1  0
  9 32  1  0
 12 33  1  0
 12 34  1  0
 13 35  1  0
 13 36  1  0
 15 37  1  0
 16 38  1  0
 19 39  1  0
 22 40  1  0
M  END
>  <Energy>  (116) 
351.47692743730875

>  <compound_id>  (116) 
12532

>  <target_id>  (116) 
1

>  <reference_id>  (116) 
68

>  <inspiration_ids>  (116) 
[64, 68]

>  <energy_score>  (116) 
272.2917326433901

>  <distance_score>  (116) 
1.5962187153437808

>  <path>  (116) 
/opt/xchem-fragalysis-2/maxwin/BulkDock/SCRATCH/511016/C12532-P68/C12532-P68.minimised.mol

>  <scratch_subdir>  (116) 
/opt/xchem-fragalysis-2/maxwin/BulkDock/SCRATCH/511016/C12532-P68

>  <fragmenstein_runtime>  (116) 
8.471786737442017

>  <fragmenstein_outcome>  (116) 
too moved

>  <fragmenstein_mode>  (116) 
expansion

>  <fragmenstein_error>  (116) 


$$$$
C12531-P64
     RDKit          3D

 35 38  0  0  0  0  0  0  0  0999 V2000
  -10.3992  -31.0061   26.0261 O   0  0  0  0  0  0  0  0  0  0  0  0
  -10.3016  -30.4942   24.9696 C   0  0  0  0  0  0  0  0  0  0  0  0
  -10.3286  -28.9531   24.5659 N   0  0  0  0  0  0  0  0  0  0  0  0
  -10.5854  -27.7273   25.4052 C   0  0  0  0  0  0  0  0  0  0  0  0
   -9.7619  -27.2563   26.4373 C   0  0  0  0  0  0  0  0  0  0  0  0
  -10.0450  -26.3194   27.4592 C   0  0  0  0  0  0  0  0  0  0  0  0
  -11.2031  -25.6322   27.3874 C   0  0  0  0  0  0  0  0  0  0  0  0
  -11.9804  -25.9257   26.2801 C   0  0  0  0  0  0  0  0  0  0  0  0
  -13.2392  -25.2921   26.1395 C   0  0  0  0  0  0  0  0  0  0  0  0
  -13.6068  -24.1631   25.4604 C   0  0  0  0  0  0  0  0  0  0  0  0
  -14.9607  -24.1657   25.2626 N   0  0  0  0  0  0  0  0  0  0  0  0
  -15.4054  -25.2272   25.8963 C   0  0  0  0  0  0  0  0  0  0  0  0
  -14.3959  -25.9317   26.4685 N   0  0  0  0  0  0  0  0  0  0  0  0
  -11.6686  -26.9046   25.2758 C   0  0  0  0  0  0  0  0  0  0  0  0
  -10.2144  -31.5884   23.8509 C   0  0  0  0  0  0  0  0  0  0  0  0
  -11.1100  -32.6746   24.0561 C   0  0  0  0  0  0  0  0  0  0  0  0
  -10.8345  -34.0086   23.6676 C   0  0  0  0  0  0  0  0  0  0  0  0
   -9.6278  -34.3048   23.0158 C   0  0  0  0  0  0  0  0  0  0  0  0
   -9.1328  -35.5793   22.7438 N   0  0  0  0  0  0  0  0  0  0  0  0
   -7.9909  -35.4726   22.1052 C   0  0  0  0  0  0  0  0  0  0  0  0
   -7.4792  -33.8783   21.7419 S   0  0  0  0  0  0  0  0  0  0  0  0
   -8.8144  -33.2265   22.6464 C   0  0  0  0  0  0  0  0  0  0  0  0
   -9.0841  -31.8688   23.0606 C   0  0  0  0  0  0  0  0  0  0  0  0
  -10.3012  -28.8655   23.5560 H   0  0  0  0  0  0  0  0  0  0  0  0
   -8.7507  -27.6478   26.4703 H   0  0  0  0  0  0  0  0  0  0  0  0
   -9.3285  -26.1329   28.2493 H   0  0  0  0  0  0  0  0  0  0  0  0
  -11.4760  -24.8866   28.1247 H   0  0  0  0  0  0  0  0  0  0  0  0
  -12.9718  -23.3990   25.0289 H   0  0  0  0  0  0  0  0  0  0  0  0
  -16.4420  -25.5270   25.9759 H   0  0  0  0  0  0  0  0  0  0  0  0
  -14.4817  -26.8094   26.9624 H   0  0  0  0  0  0  0  0  0  0  0  0
  -12.3703  -27.0622   24.4724 H   0  0  0  0  0  0  0  0  0  0  0  0
  -11.9847  -32.5175   24.6873 H   0  0  0  0  0  0  0  0  0  0  0  0
  -11.5030  -34.8128   23.9584 H   0  0  0  0  0  0  0  0  0  0  0  0
   -7.4157  -36.3335   21.7923 H   0  0  0  0  0  0  0  0  0  0  0  0
   -8.3209  -31.1095   22.9057 H   0  0  0  0  0  0  0  0  0  0  0  0
  1  2  2  0
  2  3  1  0
  3  4  1  0
  4  5  2  0
  5  6  1  0
  6  7  2  0
  7  8  1  0
  8  9  1  0
  9 10  2  0
 10 11  1  0
 11 12  2  0
 12 13  1  0
  8 14  2  0
  2 15  1  0
 15 16  2  0
 16 17  1  0
 17 18  2  0
 18 19  1  0
 19 20  2  0
 20 21  1  0
 21 22  1  0
 22 23  2  0
 14  4  1  0
 23 15  1  0
 13  9  1  0
 22 18  1  0
  3 24  1  0
  5 25  1  0
  6 26  1  0
  7 27  1  0
 10 28  1  0
 12 29  1  0
 13 30  1  0
 14 31  1  0
 16 32  1  0
 17 33  1  0
 20 34  1  0
 23 35  1  0
M  END
>  <Energy>  (117) 
111.43131517984321

>  <compound_id>  (117) 
12531

>  <target_id>  (117) 
1

>  <reference_id>  (117) 
64

>  <inspiration_ids>  (117) 
[64, 68]

>  <energy_score>  (117) 
11.773614253638982

>  <distance_score>  (117) 
3.301126614108754

>  <path>  (117) 
/opt/xchem-fragalysis-2/maxwin/BulkDock/SCRATCH/511016/C12531-P64/C12531-P64.minimised.mol

>  <scratch_subdir>  (117) 
/opt/xchem-fragalysis-2/maxwin/BulkDock/SCRATCH/511016/C12531-P64

>  <fragmenstein_runtime>  (117) 
6.370715618133545

>  <fragmenstein_outcome>  (117) 
too moved

>  <fragmenstein_mode>  (117) 
expansion

>  <fragmenstein_error>  (117) 


$$$$
C12531-P68
     RDKit          3D

 35 38  0  0  0  0  0  0  0  0999 V2000
  -12.0917  -28.7586   19.2653 O   0  0  0  0  0  0  0  0  0  0  0  0
  -11.4389  -29.4676   20.0286 C   0  0  0  0  0  0  0  0  0  0  0  0
  -10.5011  -29.0310   21.5626 N   0  0  0  0  0  0  0  0  0  0  0  0
  -10.3034  -27.2969   22.6550 C   0  0  0  0  0  0  0  0  0  0  0  0
   -9.4115  -27.8068   24.2895 C   0  0  0  0  0  0  0  0  0  0  0  0
   -9.9371  -28.0696   25.9590 C   0  0  0  0  0  0  0  0  0  0  0  0
  -10.8103  -27.3687   26.6692 C   0  0  0  0  0  0  0  0  0  0  0  0
  -11.3317  -26.5589   25.7893 C   0  0  0  0  0  0  0  0  0  0  0  0
  -12.7062  -26.0655   25.9759 C   0  0  0  0  0  0  0  0  0  0  0  0
  -13.2682  -24.8288   25.7988 C   0  0  0  0  0  0  0  0  0  0  0  0
  -14.5567  -24.9827   25.3518 N   0  0  0  0  0  0  0  0  0  0  0  0
  -14.8239  -26.2600   25.3589 C   0  0  0  0  0  0  0  0  0  0  0  0
  -13.7933  -26.8980   25.9407 N   0  0  0  0  0  0  0  0  0  0  0  0
  -11.0011  -27.2127   24.3712 C   0  0  0  0  0  0  0  0  0  0  0  0
  -11.3675  -31.0371   19.9083 C   0  0  0  0  0  0  0  0  0  0  0  0
  -11.0731  -31.8057   21.0706 C   0  0  0  0  0  0  0  0  0  0  0  0
  -11.2347  -33.1950   21.1703 C   0  0  0  0  0  0  0  0  0  0  0  0
  -11.8053  -33.8749   20.0977 C   0  0  0  0  0  0  0  0  0  0  0  0
  -11.9817  -35.2444   20.0361 N   0  0  0  0  0  0  0  0  0  0  0  0
  -12.5572  -35.5439   18.8967 C   0  0  0  0  0  0  0  0  0  0  0  0
  -12.9524  -34.2283   17.8704 S   0  0  0  0  0  0  0  0  0  0  0  0
  -12.2512  -33.1281   19.0005 C   0  0  0  0  0  0  0  0  0  0  0  0
  -12.0933  -31.7131   18.9131 C   0  0  0  0  0  0  0  0  0  0  0  0
  -10.0048  -29.8244   21.9174 H   0  0  0  0  0  0  0  0  0  0  0  0
   -8.5959  -28.4666   23.8334 H   0  0  0  0  0  0  0  0  0  0  0  0
   -9.5098  -28.8473   26.6286 H   0  0  0  0  0  0  0  0  0  0  0  0
  -11.0036  -27.7182   27.6528 H   0  0  0  0  0  0  0  0  0  0  0  0
  -12.8061  -23.8463   25.8357 H   0  0  0  0  0  0  0  0  0  0  0  0
  -15.7460  -26.7260   25.0375 H   0  0  0  0  0  0  0  0  0  0  0  0
  -13.7544  -27.8661   26.2142 H   0  0  0  0  0  0  0  0  0  0  0  0
  -11.8237  -27.9297   24.6554 H   0  0  0  0  0  0  0  0  0  0  0  0
  -10.7671  -31.3766   22.0087 H   0  0  0  0  0  0  0  0  0  0  0  0
  -10.9484  -33.7360   22.0663 H   0  0  0  0  0  0  0  0  0  0  0  0
  -12.7891  -36.5630   18.6161 H   0  0  0  0  0  0  0  0  0  0  0  0
  -12.5002  -31.1679   18.0654 H   0  0  0  0  0  0  0  0  0  0  0  0
  1  2  2  0
  2  3  1  0
  3  4  1  0
  4  5  2  0
  5  6  1  0
  6  7  2  0
  7  8  1  0
  8  9  1  0
  9 10  2  0
 10 11  1  0
 11 12  2  0
 12 13  1  0
  8 14  2  0
  2 15  1  0
 15 16  2  0
 16 17  1  0
 17 18  2  0
 18 19  1  0
 19 20  2  0
 20 21  1  0
 21 22  1  0
 22 23  2  0
 14  4  1  0
 23 15  1  0
 13  9  1  0
 22 18  1  0
  3 24  1  0
  5 25  1  0
  6 26  1  0
  7 27  1  0
 10 28  1  0
 12 29  1  0
 13 30  1  0
 14 31  1  0
 16 32  1  0
 17 33  1  0
 20 34  1  0
 23 35  1  0
M  END
>  <Energy>  (118) 
713.8977826685699

>  <compound_id>  (118) 
12531

>  <target_id>  (118) 
1

>  <reference_id>  (118) 
68

>  <inspiration_ids>  (118) 
[64, 68]

>  <energy_score>  (118) 
623.3971945031489

>  <distance_score>  (118) 
5.019922824844786

>  <path>  (118) 
/opt/xchem-fragalysis-2/maxwin/BulkDock/SCRATCH/511016/C12531-P68/C12531-P68.minimised.mol

>  <scratch_subdir>  (118) 
/opt/xchem-fragalysis-2/maxwin/BulkDock/SCRATCH/511016/C12531-P68

>  <fragmenstein_runtime>  (118) 
13.569001197814941

>  <fragmenstein_outcome>  (118) 
too moved

>  <fragmenstein_mode>  (118) 
expansion

>  <fragmenstein_error>  (118) 


$$$$
C12533-P64
     RDKit          3D

 38 41  0  0  0  0  0  0  0  0999 V2000
  -11.5284  -31.2537   24.8439 O   0  0  0  0  0  0  0  0  0  0  0  0
  -10.4786  -30.7961   24.5517 C   0  0  0  0  0  0  0  0  0  0  0  0
   -9.5099  -31.6374   23.7397 C   0  0  0  0  0  0  0  0  0  0  0  0
  -10.3029  -32.6237   22.8220 C   0  0  0  0  0  0  0  0  0  0  0  0
   -9.8556  -34.0595   23.0032 C   0  0  0  0  0  0  0  0  0  0  0  0
  -10.4449  -34.8724   23.9763 C   0  0  0  0  0  0  0  0  0  0  0  0
   -9.9133  -36.1326   24.2791 C   0  0  0  0  0  0  0  0  0  0  0  0
   -8.7901  -36.6056   23.5730 C   0  0  0  0  0  0  0  0  0  0  0  0
   -8.1237  -37.8000   23.8020 N   0  0  0  0  0  0  0  0  0  0  0  0
   -7.1475  -37.9265   22.9326 C   0  0  0  0  0  0  0  0  0  0  0  0
   -6.9525  -36.6508   21.8104 S   0  0  0  0  0  0  0  0  0  0  0  0
   -8.2649  -35.8168   22.5481 C   0  0  0  0  0  0  0  0  0  0  0  0
   -8.7782  -34.5452   22.2483 C   0  0  0  0  0  0  0  0  0  0  0  0
   -9.8928  -29.3357   24.7797 N   0  0  0  0  0  0  0  0  0  0  0  0
  -10.5374  -28.1093   25.3356 C   0  0  0  0  0  0  0  0  0  0  0  0
  -10.0288  -27.3001   26.2745 N   0  0  0  0  0  0  0  0  0  0  0  0
  -10.9986  -26.4135   26.6814 C   0  0  0  0  0  0  0  0  0  0  0  0
  -10.9218  -25.4834   27.9152 C   0  0  0  0  0  0  0  0  0  0  0  0
  -10.5508  -25.9861   29.2914 C   0  0  0  0  0  0  0  0  0  0  0  0
   -9.5642  -25.2573   28.4802 C   0  0  0  0  0  0  0  0  0  0  0  0
  -11.9821  -26.3861   25.7450 C   0  0  0  0  0  0  0  0  0  0  0  0
  -11.6056  -27.3712   24.8628 N   0  0  0  0  0  0  0  0  0  0  0  0
   -8.8808  -32.1829   24.4249 H   0  0  0  0  0  0  0  0  0  0  0  0
   -8.8861  -30.9918   23.1131 H   0  0  0  0  0  0  0  0  0  0  0  0
  -11.3899  -32.5728   22.9504 H   0  0  0  0  0  0  0  0  0  0  0  0
  -10.1328  -32.3329   21.7763 H   0  0  0  0  0  0  0  0  0  0  0  0
  -11.2936  -34.5051   24.5519 H   0  0  0  0  0  0  0  0  0  0  0  0
  -10.3463  -36.7384   25.0689 H   0  0  0  0  0  0  0  0  0  0  0  0
   -6.4973  -38.7915   22.9185 H   0  0  0  0  0  0  0  0  0  0  0  0
   -8.3060  -33.9303   21.4858 H   0  0  0  0  0  0  0  0  0  0  0  0
   -8.9358  -29.3072   24.4819 H   0  0  0  0  0  0  0  0  0  0  0  0
  -11.5805  -24.6213   27.8743 H   0  0  0  0  0  0  0  0  0  0  0  0
  -10.3778  -27.0433   29.4293 H   0  0  0  0  0  0  0  0  0  0  0  0
  -10.8797  -25.4578   30.1769 H   0  0  0  0  0  0  0  0  0  0  0  0
   -8.7706  -25.8852   28.1197 H   0  0  0  0  0  0  0  0  0  0  0  0
   -9.3408  -24.2308   28.6811 H   0  0  0  0  0  0  0  0  0  0  0  0
  -12.8794  -25.8000   25.6219 H   0  0  0  0  0  0  0  0  0  0  0  0
  -12.1036  -27.6394   24.0450 H   0  0  0  0  0  0  0  0  0  0  0  0
  1  2  2  0
  2  3  1  0
  3  4  1  0
  4  5  1  0
  5  6  2  0
  6  7  1  0
  7  8  2  0
  8  9  1  0
  9 10  2  0
 10 11  1  0
 11 12  1  0
 12 13  2  0
  2 14  1  0
 14 15  1  0
 15 16  2  0
 16 17  1  0
 17 18  1  0
 18 19  1  0
 19 20  1  0
 17 21  2  0
 21 22  1  0
 13  5  1  0
 22 15  1  0
 12  8  1  0
 20 18  1  0
  3 23  1  0
  3 24  1  0
  4 25  1  0
  4 26  1  0
  6 27  1  0
  7 28  1  0
 10 29  1  0
 13 30  1  0
 14 31  1  0
 18 32  1  0
 19 33  1  0
 19 34  1  0
 20 35  1  0
 20 36  1  0
 21 37  1  0
 22 38  1  0
M  END
>  <Energy>  (119) 
49.061481348059161

>  <compound_id>  (119) 
12533

>  <target_id>  (119) 
1

>  <reference_id>  (119) 
64

>  <inspiration_ids>  (119) 
[64, 68]

>  <energy_score>  (119) 
-44.34973287800997

>  <distance_score>  (119) 
1.9095694376225945

>  <path>  (119) 
/opt/xchem-fragalysis-2/maxwin/BulkDock/SCRATCH/511016/C12533-P64/C12533-P64.minimised.mol

>  <scratch_subdir>  (119) 
/opt/xchem-fragalysis-2/maxwin/BulkDock/SCRATCH/511016/C12533-P64

>  <fragmenstein_runtime>  (119) 
3.290358066558838

>  <fragmenstein_outcome>  (119) 
too moved

>  <fragmenstein_mode>  (119) 
expansion

>  <fragmenstein_error>  (119) 


$$$$
C12533-P68
     RDKit          3D

 38 41  0  0  0  0  0  0  0  0999 V2000
  -12.9266  -27.7823   24.7194 O   0  0  0  0  0  0  0  0  0  0  0  0
  -12.1001  -28.6194   24.9469 C   0  0  0  0  0  0  0  0  0  0  0  0
  -12.0684  -30.6791   23.7869 C   0  0  0  0  0  0  0  0  0  0  0  0
  -12.6193  -32.3036   24.5202 C   0  0  0  0  0  0  0  0  0  0  0  0
  -11.8863  -33.6126   24.2651 C   0  0  0  0  0  0  0  0  0  0  0  0
  -12.4588  -34.7487   24.8628 C   0  0  0  0  0  0  0  0  0  0  0  0
  -11.8804  -36.0197   24.7620 C   0  0  0  0  0  0  0  0  0  0  0  0
  -10.6895  -36.1859   24.0401 C   0  0  0  0  0  0  0  0  0  0  0  0
   -9.9979  -37.3768   23.8961 N   0  0  0  0  0  0  0  0  0  0  0  0
   -8.9286  -37.1767   23.1636 C   0  0  0  0  0  0  0  0  0  0  0  0
   -8.7215  -35.5939   22.5579 S   0  0  0  0  0  0  0  0  0  0  0  0
  -10.1366  -35.0723   23.4052 C   0  0  0  0  0  0  0  0  0  0  0  0
  -10.7200  -33.7804   23.5021 C   0  0  0  0  0  0  0  0  0  0  0  0
  -10.8354  -28.1018   26.1028 N   0  0  0  0  0  0  0  0  0  0  0  0
  -10.5893  -26.9559   26.6823 C   0  0  0  0  0  0  0  0  0  0  0  0
  -10.0925  -26.6935   27.8363 N   0  0  0  0  0  0  0  0  0  0  0  0
   -9.8973  -25.2729   27.8002 C   0  0  0  0  0  0  0  0  0  0  0  0
   -9.4647  -24.3964   29.0395 C   0  0  0  0  0  0  0  0  0  0  0  0
   -8.5441  -24.8332   30.4620 C   0  0  0  0  0  0  0  0  0  0  0  0
  -10.1408  -24.0590   30.8044 C   0  0  0  0  0  0  0  0  0  0  0  0
  -10.4569  -24.7421   26.6510 C   0  0  0  0  0  0  0  0  0  0  0  0
  -11.0738  -25.8298   26.1081 N   0  0  0  0  0  0  0  0  0  0  0  0
  -12.5983  -30.8802   22.7210 H   0  0  0  0  0  0  0  0  0  0  0  0
  -11.1350  -31.0604   23.1158 H   0  0  0  0  0  0  0  0  0  0  0  0
  -12.6961  -32.1314   25.6052 H   0  0  0  0  0  0  0  0  0  0  0  0
  -13.6406  -32.4686   24.1365 H   0  0  0  0  0  0  0  0  0  0  0  0
  -13.3783  -34.6532   25.4407 H   0  0  0  0  0  0  0  0  0  0  0  0
  -12.3362  -36.8785   25.2444 H   0  0  0  0  0  0  0  0  0  0  0  0
   -8.2255  -37.9697   22.9426 H   0  0  0  0  0  0  0  0  0  0  0  0
  -10.2415  -32.9519   22.9959 H   0  0  0  0  0  0  0  0  0  0  0  0
  -10.1476  -28.8441   26.1576 H   0  0  0  0  0  0  0  0  0  0  0  0
   -9.1246  -23.5043   28.4757 H   0  0  0  0  0  0  0  0  0  0  0  0
   -8.5565  -25.2793   31.4938 H   0  0  0  0  0  0  0  0  0  0  0  0
   -8.2668  -25.9352   30.3963 H   0  0  0  0  0  0  0  0  0  0  0  0
  -10.1317  -24.2460   31.8910 H   0  0  0  0  0  0  0  0  0  0  0  0
  -10.7277  -23.1101   30.7321 H   0  0  0  0  0  0  0  0  0  0  0  0
  -10.7555  -23.7423   26.4062 H   0  0  0  0  0  0  0  0  0  0  0  0
  -11.9291  -25.8438   25.5875 H   0  0  0  0  0  0  0  0  0  0  0  0
  1  2  2  0
  2  3  1  0
  3  4  1  0
  4  5  1  0
  5  6  2  0
  6  7  1  0
  7  8  2  0
  8  9  1  0
  9 10  2  0
 10 11  1  0
 11 12  1  0
 12 13  2  0
  2 14  1  0
 14 15  1  0
 15 16  2  0
 16 17  1  0
 17 18  1  0
 18 19  1  0
 19 20  1  0
 17 21  2  0
 21 22  1  0
 13  5  1  0
 22 15  1  0
 12  8  1  0
 20 18  1  0
  3 23  1  0
  3 24  1  0
  4 25  1  0
  4 26  1  0
  6 27  1  0
  7 28  1  0
 10 29  1  0
 13 30  1  0
 14 31  1  0
 18 32  1  0
 19 33  1  0
 19 34  1  0
 20 35  1  0
 20 36  1  0
 21 37  1  0
 22 38  1  0
M  END
>  <Energy>  (120) 
525.16296419350351

>  <compound_id>  (120) 
12533

>  <target_id>  (120) 
1

>  <reference_id>  (120) 
68

>  <inspiration_ids>  (120) 
[64, 68]

>  <energy_score>  (120) 
465.58174801441874

>  <distance_score>  (120) 
2.01864720359011

>  <path>  (120) 
/opt/xchem-fragalysis-2/maxwin/BulkDock/SCRATCH/511016/C12533-P68/C12533-P68.minimised.mol

>  <scratch_subdir>  (120) 
/opt/xchem-fragalysis-2/maxwin/BulkDock/SCRATCH/511016/C12533-P68

>  <fragmenstein_runtime>  (120) 
4.890630483627319

>  <fragmenstein_outcome>  (120) 
too moved

>  <fragmenstein_mode>  (120) 
expansion

>  <fragmenstein_error>  (120) 


$$$$
C12534-P64
     RDKit          3D

 36 38  0  0  0  0  0  0  0  0999 V2000
  -12.8485  -26.3303   25.3827 C   0  0  0  0  0  0  0  0  0  0  0  0
  -11.5583  -26.3889   26.0070 N   0  0  0  0  0  0  0  0  0  0  0  0
  -11.2853  -25.5498   27.0600 C   0  0  0  0  0  0  0  0  0  0  0  0
  -10.1441  -26.0386   27.6117 C   0  0  0  0  0  0  0  0  0  0  0  0
   -9.6733  -27.0675   26.8421 N   0  0  0  0  0  0  0  0  0  0  0  0
  -10.5047  -27.3002   25.8358 C   0  0  0  0  0  0  0  0  0  0  0  0
  -10.5280  -28.5660   24.8630 C   0  0  0  0  0  0  0  0  0  0  0  0
   -9.5773  -29.6669   24.1268 C   0  0  0  0  0  0  0  0  0  0  0  0
   -9.4236  -29.3709   22.6054 N   0  0  0  0  0  0  0  0  0  0  0  0
   -9.9428  -31.1617   23.9780 C   0  0  0  0  0  0  0  0  0  0  0  0
   -8.9644  -31.8613   22.8907 O   0  0  0  0  0  0  0  0  0  0  0  0
  -10.6395  -31.9615   24.2140 N   0  0  0  0  0  0  0  0  0  0  0  0
  -10.9379  -33.4706   23.9574 C   0  0  0  0  0  0  0  0  0  0  0  0
  -12.1336  -34.1271   24.3409 C   0  0  0  0  0  0  0  0  0  0  0  0
  -12.2773  -35.5244   24.2330 C   0  0  0  0  0  0  0  0  0  0  0  0
  -11.2280  -36.3145   23.7231 C   0  0  0  0  0  0  0  0  0  0  0  0
  -11.2140  -37.6942   23.6021 N   0  0  0  0  0  0  0  0  0  0  0  0
  -10.0685  -38.0780   23.0830 C   0  0  0  0  0  0  0  0  0  0  0  0
   -8.9480  -36.8412   22.7114 S   0  0  0  0  0  0  0  0  0  0  0  0
  -10.0729  -35.6723   23.2955 C   0  0  0  0  0  0  0  0  0  0  0  0
   -9.9248  -34.2771   23.3879 C   0  0  0  0  0  0  0  0  0  0  0  0
  -13.5702  -26.8291   26.0339 H   0  0  0  0  0  0  0  0  0  0  0  0
  -13.1455  -25.2841   25.2682 H   0  0  0  0  0  0  0  0  0  0  0  0
  -12.8037  -26.8022   24.4138 H   0  0  0  0  0  0  0  0  0  0  0  0
  -11.9352  -24.7357   27.3499 H   0  0  0  0  0  0  0  0  0  0  0  0
   -9.6184  -25.6961   28.4923 H   0  0  0  0  0  0  0  0  0  0  0  0
  -10.9234  -29.2796   25.5375 H   0  0  0  0  0  0  0  0  0  0  0  0
  -11.2027  -28.1339   24.1556 H   0  0  0  0  0  0  0  0  0  0  0  0
   -8.5992  -29.6647   24.6097 H   0  0  0  0  0  0  0  0  0  0  0  0
   -8.7792  -30.1093   22.2598 H   0  0  0  0  0  0  0  0  0  0  0  0
  -10.3277  -29.6426   22.2037 H   0  0  0  0  0  0  0  0  0  0  0  0
  -11.4528  -32.3488   24.6345 H   0  0  0  0  0  0  0  0  0  0  0  0
  -12.9754  -33.5791   24.7628 H   0  0  0  0  0  0  0  0  0  0  0  0
  -13.1913  -36.0117   24.5605 H   0  0  0  0  0  0  0  0  0  0  0  0
   -9.8412  -39.1193   22.8957 H   0  0  0  0  0  0  0  0  0  0  0  0
   -8.9694  -33.8790   23.0701 H   0  0  0  0  0  0  0  0  0  0  0  0
  1  2  1  0
  2  3  1  0
  3  4  2  0
  4  5  1  0
  5  6  2  0
  6  7  1  0
  7  8  1  0
  8  9  1  0
  8 10  1  0
 10 11  2  0
 10 12  1  0
 12 13  1  0
 13 14  2  0
 14 15  1  0
 15 16  2  0
 16 17  1  0
 17 18  2  0
 18 19  1  0
 19 20  1  0
 20 21  2  0
  6  2  1  0
 21 13  1  0
 20 16  1  0
  1 22  1  0
  1 23  1  0
  1 24  1  0
  3 25  1  0
  4 26  1  0
  7 27  1  0
  7 28  1  0
  8 29  1  0
  9 30  1  0
  9 31  1  0
 12 32  1  0
 14 33  1  0
 15 34  1  0
 18 35  1  0
 21 36  1  0
M  END
>  <Energy>  (121) 
336.07089727263912

>  <compound_id>  (121) 
12534

>  <target_id>  (121) 
1

>  <reference_id>  (121) 
64

>  <inspiration_ids>  (121) 
[64, 68]

>  <energy_score>  (121) 
176.84347120704768

>  <distance_score>  (121) 
2.324696107055052

>  <path>  (121) 
/opt/xchem-fragalysis-2/maxwin/BulkDock/SCRATCH/511016/C12534-P64/C12534-P64.minimised.mol

>  <scratch_subdir>  (121) 
/opt/xchem-fragalysis-2/maxwin/BulkDock/SCRATCH/511016/C12534-P64

>  <fragmenstein_runtime>  (121) 
3.2735421657562256

>  <fragmenstein_outcome>  (121) 
too moved

>  <fragmenstein_mode>  (121) 
expansion

>  <fragmenstein_error>  (121) 


$$$$
C12534-P68
     RDKit          3D

 36 38  0  0  0  0  0  0  0  0999 V2000
  -13.5587  -26.1676   25.8065 C   0  0  0  0  0  0  0  0  0  0  0  0
  -12.1923  -25.7542   25.9514 N   0  0  0  0  0  0  0  0  0  0  0  0
  -11.7983  -24.4841   26.3512 C   0  0  0  0  0  0  0  0  0  0  0  0
  -10.4545  -24.6034   26.5796 C   0  0  0  0  0  0  0  0  0  0  0  0
  -10.0085  -25.7265   25.9784 N   0  0  0  0  0  0  0  0  0  0  0  0
  -11.0353  -26.3225   25.4448 C   0  0  0  0  0  0  0  0  0  0  0  0
  -10.8624  -27.4750   24.2719 C   0  0  0  0  0  0  0  0  0  0  0  0
  -10.6688  -27.7885   22.1316 C   0  0  0  0  0  0  0  0  0  0  0  0
  -10.2052  -27.0010   21.1018 N   0  0  0  0  0  0  0  0  0  0  0  0
  -10.7496  -29.8087   21.4248 C   0  0  0  0  0  0  0  0  0  0  0  0
  -11.2172  -29.8635   20.3003 O   0  0  0  0  0  0  0  0  0  0  0  0
  -10.3658  -30.9892   22.3356 N   0  0  0  0  0  0  0  0  0  0  0  0
  -10.5312  -32.3920   22.1769 C   0  0  0  0  0  0  0  0  0  0  0  0
  -10.1626  -33.2021   23.2587 C   0  0  0  0  0  0  0  0  0  0  0  0
  -10.2404  -34.5965   23.2378 C   0  0  0  0  0  0  0  0  0  0  0  0
  -10.7434  -35.2192   22.0946 C   0  0  0  0  0  0  0  0  0  0  0  0
  -10.8333  -36.5859   21.9102 N   0  0  0  0  0  0  0  0  0  0  0  0
  -11.3684  -36.8252   20.7377 C   0  0  0  0  0  0  0  0  0  0  0  0
  -11.8392  -35.4574   19.8241 S   0  0  0  0  0  0  0  0  0  0  0  0
  -11.2028  -34.4161   21.0456 C   0  0  0  0  0  0  0  0  0  0  0  0
  -11.1221  -32.9981   21.0722 C   0  0  0  0  0  0  0  0  0  0  0  0
  -14.1506  -25.3283   25.4369 H   0  0  0  0  0  0  0  0  0  0  0  0
  -13.7063  -27.0052   25.1379 H   0  0  0  0  0  0  0  0  0  0  0  0
  -13.8781  -26.5218   26.7754 H   0  0  0  0  0  0  0  0  0  0  0  0
  -12.4728  -23.6720   26.5129 H   0  0  0  0  0  0  0  0  0  0  0  0
   -9.7954  -23.9466   27.1221 H   0  0  0  0  0  0  0  0  0  0  0  0
  -11.7211  -27.9546   24.8056 H   0  0  0  0  0  0  0  0  0  0  0  0
   -9.9181  -27.8575   24.7636 H   0  0  0  0  0  0  0  0  0  0  0  0
  -10.0953  -27.1365   22.7441 H   0  0  0  0  0  0  0  0  0  0  0  0
  -10.8713  -26.8506   20.3451 H   0  0  0  0  0  0  0  0  0  0  0  0
  -10.0784  -26.0224   21.3860 H   0  0  0  0  0  0  0  0  0  0  0  0
   -9.9287  -30.6306   23.1567 H   0  0  0  0  0  0  0  0  0  0  0  0
   -9.7469  -32.7683   24.1567 H   0  0  0  0  0  0  0  0  0  0  0  0
   -9.8944  -35.1905   24.0779 H   0  0  0  0  0  0  0  0  0  0  0  0
  -11.5270  -37.8307   20.3704 H   0  0  0  0  0  0  0  0  0  0  0  0
  -11.4939  -32.4181   20.2319 H   0  0  0  0  0  0  0  0  0  0  0  0
  1  2  1  0
  2  3  1  0
  3  4  2  0
  4  5  1  0
  5  6  2  0
  6  7  1  0
  7  8  1  0
  8  9  1  0
  8 10  1  0
 10 11  2  0
 10 12  1  0
 12 13  1  0
 13 14  2  0
 14 15  1  0
 15 16  2  0
 16 17  1  0
 17 18  2  0
 18 19  1  0
 19 20  1  0
 20 21  2  0
  6  2  1  0
 21 13  1  0
 20 16  1  0
  1 22  1  0
  1 23  1  0
  1 24  1  0
  3 25  1  0
  4 26  1  0
  7 27  1  0
  7 28  1  0
  8 29  1  0
  9 30  1  0
  9 31  1  0
 12 32  1  0
 14 33  1  0
 15 34  1  0
 18 35  1  0
 21 36  1  0
M  END
>  <Energy>  (122) 
421.19409787713261

>  <compound_id>  (122) 
12534

>  <target_id>  (122) 
1

>  <reference_id>  (122) 
68

>  <inspiration_ids>  (122) 
[64, 68]

>  <energy_score>  (122) 
261.9666718115383

>  <distance_score>  (122) 
3.1176429113517092

>  <path>  (122) 
/opt/xchem-fragalysis-2/maxwin/BulkDock/SCRATCH/511016/C12534-P68/C12534-P68.minimised.mol

>  <scratch_subdir>  (122) 
/opt/xchem-fragalysis-2/maxwin/BulkDock/SCRATCH/511016/C12534-P68

>  <fragmenstein_runtime>  (122) 
5.770263910293579

>  <fragmenstein_outcome>  (122) 
too moved

>  <fragmenstein_mode>  (122) 
expansion

>  <fragmenstein_error>  (122) 


$$$$
C12537-P64
     RDKit          3D

 36 38  0  0  0  0  0  0  0  0999 V2000
   -9.9726  -31.4482   21.2714 O   0  0  0  0  0  0  0  0  0  0  0  0
   -9.9475  -31.3440   22.4999 C   0  0  0  0  0  0  0  0  0  0  0  0
  -10.6571  -32.3893   23.3345 C   0  0  0  0  0  0  0  0  0  0  0  0
  -10.1017  -33.8137   23.2863 C   0  0  0  0  0  0  0  0  0  0  0  0
  -10.6827  -34.7858   24.1166 C   0  0  0  0  0  0  0  0  0  0  0  0
  -10.1115  -36.0578   24.2717 C   0  0  0  0  0  0  0  0  0  0  0  0
   -8.9585  -36.4005   23.5423 C   0  0  0  0  0  0  0  0  0  0  0  0
   -8.2508  -37.5892   23.6430 N   0  0  0  0  0  0  0  0  0  0  0  0
   -7.2600  -37.5776   22.7809 C   0  0  0  0  0  0  0  0  0  0  0  0
   -7.0988  -36.1705   21.8220 S   0  0  0  0  0  0  0  0  0  0  0  0
   -8.4512  -35.4729   22.6321 C   0  0  0  0  0  0  0  0  0  0  0  0
   -9.0068  -34.1845   22.4859 C   0  0  0  0  0  0  0  0  0  0  0  0
   -9.3233  -30.2889   23.0834 O   0  0  0  0  0  0  0  0  0  0  0  0
   -9.2772  -29.9265   24.4939 C   0  0  0  0  0  0  0  0  0  0  0  0
  -10.3188  -28.8420   24.8887 C   0  0  0  0  0  0  0  0  0  0  0  0
  -10.1327  -27.4941   25.6085 C   0  0  0  0  0  0  0  0  0  0  0  0
  -11.0604  -26.8313   26.5148 N   0  0  0  0  0  0  0  0  0  0  0  0
  -10.6348  -26.1044   27.6093 C   0  0  0  0  0  0  0  0  0  0  0  0
  -11.5466  -25.0872   27.7541 C   0  0  0  0  0  0  0  0  0  0  0  0
  -12.5910  -25.2560   26.8819 N   0  0  0  0  0  0  0  0  0  0  0  0
  -12.2567  -26.2839   26.1347 C   0  0  0  0  0  0  0  0  0  0  0  0
  -11.6893  -32.4222   22.9591 H   0  0  0  0  0  0  0  0  0  0  0  0
  -10.7451  -32.0745   24.3742 H   0  0  0  0  0  0  0  0  0  0  0  0
  -11.5615  -34.5412   24.7109 H   0  0  0  0  0  0  0  0  0  0  0  0
  -10.5405  -36.7759   24.9636 H   0  0  0  0  0  0  0  0  0  0  0  0
   -6.5792  -38.4119   22.6729 H   0  0  0  0  0  0  0  0  0  0  0  0
   -8.5376  -33.4839   21.7976 H   0  0  0  0  0  0  0  0  0  0  0  0
   -9.4012  -30.8214   25.1045 H   0  0  0  0  0  0  0  0  0  0  0  0
   -8.2748  -29.5581   24.6810 H   0  0  0  0  0  0  0  0  0  0  0  0
  -10.7851  -28.4568   24.0226 H   0  0  0  0  0  0  0  0  0  0  0  0
  -10.9027  -29.4437   25.5215 H   0  0  0  0  0  0  0  0  0  0  0  0
  -10.1502  -26.7700   24.8035 H   0  0  0  0  0  0  0  0  0  0  0  0
   -9.1780  -27.5120   26.1207 H   0  0  0  0  0  0  0  0  0  0  0  0
   -9.6963  -26.3028   28.1074 H   0  0  0  0  0  0  0  0  0  0  0  0
  -11.5268  -24.2704   28.4657 H   0  0  0  0  0  0  0  0  0  0  0  0
  -12.8070  -26.6359   25.2751 H   0  0  0  0  0  0  0  0  0  0  0  0
  1  2  2  0
  2  3  1  0
  3  4  1  0
  4  5  2  0
  5  6  1  0
  6  7  2  0
  7  8  1  0
  8  9  2  0
  9 10  1  0
 10 11  1  0
 11 12  2  0
  2 13  1  0
 13 14  1  0
 14 15  1  0
 15 16  1  0
 16 17  1  0
 17 18  1  0
 18 19  2  0
 19 20  1  0
 20 21  2  0
 12  4  1  0
 21 17  1  0
 11  7  1  0
  3 22  1  0
  3 23  1  0
  5 24  1  0
  6 25  1  0
  9 26  1  0
 12 27  1  0
 14 28  1  0
 14 29  1  0
 15 30  1  0
 15 31  1  0
 16 32  1  0
 16 33  1  0
 18 34  1  0
 19 35  1  0
 21 36  1  0
M  END
>  <Energy>  (123) 
81.080167686959058

>  <compound_id>  (123) 
12537

>  <target_id>  (123) 
1

>  <reference_id>  (123) 
64

>  <inspiration_ids>  (123) 
[64, 68]

>  <energy_score>  (123) 
-23.761446914127788

>  <distance_score>  (123) 
1.2001916280550051

>  <path>  (123) 
/opt/xchem-fragalysis-2/maxwin/BulkDock/SCRATCH/511016/C12537-P64/C12537-P64.minimised.mol

>  <scratch_subdir>  (123) 
/opt/xchem-fragalysis-2/maxwin/BulkDock/SCRATCH/511016/C12537-P64

>  <fragmenstein_runtime>  (123) 
2.0409512519836426

>  <fragmenstein_outcome>  (123) 
too moved

>  <fragmenstein_mode>  (123) 
expansion

>  <fragmenstein_error>  (123) 


$$$$
C12537-P68
     RDKit          3D

 36 38  0  0  0  0  0  0  0  0999 V2000
  -15.1320  -32.0549   27.3652 O   0  0  0  0  0  0  0  0  0  0  0  0
  -14.6844  -31.7151   26.2754 C   0  0  0  0  0  0  0  0  0  0  0  0
  -14.8006  -32.5783   25.0241 C   0  0  0  0  0  0  0  0  0  0  0  0
  -13.6860  -33.5889   24.7802 C   0  0  0  0  0  0  0  0  0  0  0  0
  -13.6669  -34.7808   25.5117 C   0  0  0  0  0  0  0  0  0  0  0  0
  -12.6963  -35.7694   25.2784 C   0  0  0  0  0  0  0  0  0  0  0  0
  -11.6809  -35.5583   24.3273 C   0  0  0  0  0  0  0  0  0  0  0  0
  -10.6340  -36.4209   24.0473 N   0  0  0  0  0  0  0  0  0  0  0  0
   -9.8884  -35.9110   23.0945 C   0  0  0  0  0  0  0  0  0  0  0  0
  -10.3970  -34.4005   22.4653 S   0  0  0  0  0  0  0  0  0  0  0  0
  -11.7108  -34.3788   23.5833 C   0  0  0  0  0  0  0  0  0  0  0  0
  -12.7098  -33.3973   23.7801 C   0  0  0  0  0  0  0  0  0  0  0  0
  -14.0477  -30.4938   26.1012 O   0  0  0  0  0  0  0  0  0  0  0  0
  -12.6344  -30.4579   26.5405 C   0  0  0  0  0  0  0  0  0  0  0  0
  -11.3123  -28.9663   27.1497 C   0  0  0  0  0  0  0  0  0  0  0  0
  -11.3247  -27.5397   26.3033 C   0  0  0  0  0  0  0  0  0  0  0  0
  -12.4626  -26.6285   26.1598 N   0  0  0  0  0  0  0  0  0  0  0  0
  -12.3127  -25.2661   26.1412 C   0  0  0  0  0  0  0  0  0  0  0  0
  -13.4758  -24.7418   25.6470 C   0  0  0  0  0  0  0  0  0  0  0  0
  -14.3984  -25.7238   25.5134 N   0  0  0  0  0  0  0  0  0  0  0  0
  -13.7794  -26.8209   25.8608 C   0  0  0  0  0  0  0  0  0  0  0  0
  -14.9680  -31.9543   24.1447 H   0  0  0  0  0  0  0  0  0  0  0  0
  -15.7464  -33.1313   25.1158 H   0  0  0  0  0  0  0  0  0  0  0  0
  -14.4278  -34.9695   26.2702 H   0  0  0  0  0  0  0  0  0  0  0  0
  -12.7071  -36.6963   25.8445 H   0  0  0  0  0  0  0  0  0  0  0  0
   -9.0079  -36.4165   22.7186 H   0  0  0  0  0  0  0  0  0  0  0  0
  -12.7192  -32.5188   23.1425 H   0  0  0  0  0  0  0  0  0  0  0  0
  -12.9444  -31.1002   27.3474 H   0  0  0  0  0  0  0  0  0  0  0  0
  -12.1175  -31.3007   26.0812 H   0  0  0  0  0  0  0  0  0  0  0  0
  -11.4109  -28.5699   28.1653 H   0  0  0  0  0  0  0  0  0  0  0  0
  -10.2814  -29.3626   27.1996 H   0  0  0  0  0  0  0  0  0  0  0  0
  -10.9160  -27.6462   25.3077 H   0  0  0  0  0  0  0  0  0  0  0  0
  -10.5547  -26.9454   26.8062 H   0  0  0  0  0  0  0  0  0  0  0  0
  -11.3742  -24.7747   26.3832 H   0  0  0  0  0  0  0  0  0  0  0  0
  -13.6842  -23.7051   25.4017 H   0  0  0  0  0  0  0  0  0  0  0  0
  -14.3139  -27.7491   25.9028 H   0  0  0  0  0  0  0  0  0  0  0  0
  1  2  2  0
  2  3  1  0
  3  4  1  0
  4  5  2  0
  5  6  1  0
  6  7  2  0
  7  8  1  0
  8  9  2  0
  9 10  1  0
 10 11  1  0
 11 12  2  0
  2 13  1  0
 13 14  1  0
 14 15  1  0
 15 16  1  0
 16 17  1  0
 17 18  1  0
 18 19  2  0
 19 20  1  0
 20 21  2  0
 12  4  1  0
 21 17  1  0
 11  7  1  0
  3 22  1  0
  3 23  1  0
  5 24  1  0
  6 25  1  0
  9 26  1  0
 12 27  1  0
 14 28  1  0
 14 29  1  0
 15 30  1  0
 15 31  1  0
 16 32  1  0
 16 33  1  0
 18 34  1  0
 19 35  1  0
 21 36  1  0
M  END
>  <Energy>  (124) 
174.40358986419716

>  <compound_id>  (124) 
12537

>  <target_id>  (124) 
1

>  <reference_id>  (124) 
68

>  <inspiration_ids>  (124) 
[64, 68]

>  <energy_score>  (124) 
58.047688348674455

>  <distance_score>  (124) 
3.539508854735213

>  <path>  (124) 
/opt/xchem-fragalysis-2/maxwin/BulkDock/SCRATCH/511016/C12537-P68/C12537-P68.minimised.mol

>  <scratch_subdir>  (124) 
/opt/xchem-fragalysis-2/maxwin/BulkDock/SCRATCH/511016/C12537-P68

>  <fragmenstein_runtime>  (124) 
6.488695383071899

>  <fragmenstein_outcome>  (124) 
too moved

>  <fragmenstein_mode>  (124) 
expansion

>  <fragmenstein_error>  (124) 


$$$$
C12538-P64
     RDKit          3D

 38 40  0  0  0  0  0  0  0  0999 V2000
  -10.9391  -24.0880   27.2216 C   0  0  0  0  0  0  0  0  0  0  0  0
  -11.5574  -25.4527   27.3369 C   0  0  0  0  0  0  0  0  0  0  0  0
  -11.3207  -26.3183   26.2085 N   0  0  0  0  0  0  0  0  0  0  0  0
  -12.1258  -26.4509   25.1350 C   0  0  0  0  0  0  0  0  0  0  0  0
  -11.6958  -27.3930   24.3171 N   0  0  0  0  0  0  0  0  0  0  0  0
  -10.7058  -28.1038   25.0187 C   0  0  0  0  0  0  0  0  0  0  0  0
  -10.0423  -30.0409   24.6739 S   0  0  0  0  0  0  0  0  0  0  0  0
   -8.6426  -29.7490   24.6336 O   0  0  0  0  0  0  0  0  0  0  0  0
  -10.6649  -30.7865   25.7569 O   0  0  0  0  0  0  0  0  0  0  0  0
  -10.3088  -31.0942   23.2612 N   0  0  0  0  0  0  0  0  0  0  0  0
  -11.0908  -32.3828   23.4687 C   0  0  0  0  0  0  0  0  0  0  0  0
  -12.1989  -32.5164   22.4246 C   0  0  0  0  0  0  0  0  0  0  0  0
  -10.2965  -33.6972   23.4151 C   0  0  0  0  0  0  0  0  0  0  0  0
  -10.7368  -34.7790   24.2041 C   0  0  0  0  0  0  0  0  0  0  0  0
  -10.0412  -35.9936   24.2567 C   0  0  0  0  0  0  0  0  0  0  0  0
   -8.9018  -36.1744   23.4558 C   0  0  0  0  0  0  0  0  0  0  0  0
   -8.1009  -37.3073   23.4350 N   0  0  0  0  0  0  0  0  0  0  0  0
   -7.1539  -37.1467   22.5405 C   0  0  0  0  0  0  0  0  0  0  0  0
   -7.1509  -35.6637   21.6879 S   0  0  0  0  0  0  0  0  0  0  0  0
   -8.5190  -35.1380   22.5992 C   0  0  0  0  0  0  0  0  0  0  0  0
   -9.1939  -33.8938   22.5685 C   0  0  0  0  0  0  0  0  0  0  0  0
  -10.3521  -27.2657   26.0923 C   0  0  0  0  0  0  0  0  0  0  0  0
  -11.3132  -23.5848   26.3270 H   0  0  0  0  0  0  0  0  0  0  0  0
  -11.1944  -23.4736   28.0907 H   0  0  0  0  0  0  0  0  0  0  0  0
   -9.8534  -24.1634   27.1659 H   0  0  0  0  0  0  0  0  0  0  0  0
  -12.6394  -25.3257   27.3956 H   0  0  0  0  0  0  0  0  0  0  0  0
  -11.1917  -25.9632   28.2323 H   0  0  0  0  0  0  0  0  0  0  0  0
  -13.0139  -25.8490   25.0021 H   0  0  0  0  0  0  0  0  0  0  0  0
  -10.7602  -30.4692   22.5879 H   0  0  0  0  0  0  0  0  0  0  0  0
  -11.6000  -32.3459   24.4352 H   0  0  0  0  0  0  0  0  0  0  0  0
  -11.8022  -32.4117   21.4078 H   0  0  0  0  0  0  0  0  0  0  0  0
  -12.9730  -31.7616   22.5563 H   0  0  0  0  0  0  0  0  0  0  0  0
  -12.7066  -33.4865   22.4842 H   0  0  0  0  0  0  0  0  0  0  0  0
  -11.6149  -34.6676   24.8388 H   0  0  0  0  0  0  0  0  0  0  0  0
  -10.3695  -36.7922   24.9140 H   0  0  0  0  0  0  0  0  0  0  0  0
   -6.4133  -37.9097   22.3404 H   0  0  0  0  0  0  0  0  0  0  0  0
   -8.8323  -33.0889   21.9310 H   0  0  0  0  0  0  0  0  0  0  0  0
   -9.5583  -27.2731   26.8229 H   0  0  0  0  0  0  0  0  0  0  0  0
  1  2  1  0
  2  3  1  0
  3  4  1  0
  4  5  2  0
  5  6  1  0
  6  7  1  0
  7  8  2  0
  7  9  2  0
  7 10  1  0
 10 11  1  0
 11 12  1  0
 11 13  1  0
 13 14  2  0
 14 15  1  0
 15 16  2  0
 16 17  1  0
 17 18  2  0
 18 19  1  0
 19 20  1  0
 20 21  2  0
  6 22  2  0
 22  3  1  0
 21 13  1  0
 20 16  1  0
  1 23  1  0
  1 24  1  0
  1 25  1  0
  2 26  1  0
  2 27  1  0
  4 28  1  0
 10 29  1  0
 11 30  1  0
 12 31  1  0
 12 32  1  0
 12 33  1  0
 14 34  1  0
 15 35  1  0
 18 36  1  0
 21 37  1  0
 22 38  1  0
M  END
>  <Energy>  (125) 
84.135148543916983

>  <compound_id>  (125) 
12538

>  <target_id>  (125) 
1

>  <reference_id>  (125) 
64

>  <inspiration_ids>  (125) 
[64, 68]

>  <energy_score>  (125) 
-28.66609973849083

>  <distance_score>  (125) 
2.1361527588219515

>  <path>  (125) 
/opt/xchem-fragalysis-2/maxwin/BulkDock/SCRATCH/511016/C12538-P64/C12538-P64.minimised.mol

>  <scratch_subdir>  (125) 
/opt/xchem-fragalysis-2/maxwin/BulkDock/SCRATCH/511016/C12538-P64

>  <fragmenstein_runtime>  (125) 
2.3115830421447754

>  <fragmenstein_outcome>  (125) 
too moved

>  <fragmenstein_mode>  (125) 
expansion

>  <fragmenstein_error>  (125) 


$$$$
C12538-P68
     RDKit          3D

 38 40  0  0  0  0  0  0  0  0999 V2000
  -11.3622  -23.2705   27.1704 C   0  0  0  0  0  0  0  0  0  0  0  0
  -10.8926  -24.5060   26.4668 C   0  0  0  0  0  0  0  0  0  0  0  0
  -11.8648  -25.5530   26.1822 N   0  0  0  0  0  0  0  0  0  0  0  0
  -13.0608  -25.7492   25.5755 C   0  0  0  0  0  0  0  0  0  0  0  0
  -12.9347  -27.0254   25.0783 N   0  0  0  0  0  0  0  0  0  0  0  0
  -11.6822  -27.5711   25.5645 C   0  0  0  0  0  0  0  0  0  0  0  0
   -9.9081  -28.0101   25.2628 S   0  0  0  0  0  0  0  0  0  0  0  0
   -9.5790  -26.6357   25.2308 O   0  0  0  0  0  0  0  0  0  0  0  0
   -9.8396  -28.6415   26.6189 O   0  0  0  0  0  0  0  0  0  0  0  0
   -8.6345  -29.3703   23.7327 N   0  0  0  0  0  0  0  0  0  0  0  0
   -9.7435  -31.0517   23.2425 C   0  0  0  0  0  0  0  0  0  0  0  0
  -10.5496  -31.0613   21.8745 C   0  0  0  0  0  0  0  0  0  0  0  0
  -10.1619  -32.7630   23.5673 C   0  0  0  0  0  0  0  0  0  0  0  0
  -11.0257  -33.3076   24.5378 C   0  0  0  0  0  0  0  0  0  0  0  0
  -11.2711  -34.6971   24.6604 C   0  0  0  0  0  0  0  0  0  0  0  0
  -10.6251  -35.6232   23.8337 C   0  0  0  0  0  0  0  0  0  0  0  0
  -10.6791  -37.0018   23.9235 N   0  0  0  0  0  0  0  0  0  0  0  0
   -9.9315  -37.5266   22.9783 C   0  0  0  0  0  0  0  0  0  0  0  0
   -9.2071  -36.4243   21.8857 S   0  0  0  0  0  0  0  0  0  0  0  0
   -9.8691  -35.1166   22.7896 C   0  0  0  0  0  0  0  0  0  0  0  0
   -9.7309  -33.7268   22.6044 C   0  0  0  0  0  0  0  0  0  0  0  0
  -11.7722  -26.8495   26.6771 C   0  0  0  0  0  0  0  0  0  0  0  0
  -11.9223  -22.5948   26.5228 H   0  0  0  0  0  0  0  0  0  0  0  0
  -11.9530  -23.5111   28.0130 H   0  0  0  0  0  0  0  0  0  0  0  0
  -10.5651  -22.7750   27.7118 H   0  0  0  0  0  0  0  0  0  0  0  0
  -10.1024  -24.9536   27.0805 H   0  0  0  0  0  0  0  0  0  0  0  0
  -10.3670  -24.2512   25.5579 H   0  0  0  0  0  0  0  0  0  0  0  0
  -13.8095  -25.0064   25.3332 H   0  0  0  0  0  0  0  0  0  0  0  0
   -8.7416  -28.7997   22.8843 H   0  0  0  0  0  0  0  0  0  0  0  0
   -8.8610  -31.5569   23.6021 H   0  0  0  0  0  0  0  0  0  0  0  0
  -10.1559  -31.7263   21.1087 H   0  0  0  0  0  0  0  0  0  0  0  0
  -10.6258  -30.1107   21.3889 H   0  0  0  0  0  0  0  0  0  0  0  0
  -11.5837  -31.3954   22.0403 H   0  0  0  0  0  0  0  0  0  0  0  0
  -11.5636  -32.7329   25.2810 H   0  0  0  0  0  0  0  0  0  0  0  0
  -11.9525  -35.0684   25.4158 H   0  0  0  0  0  0  0  0  0  0  0  0
   -9.7952  -38.5958   22.8789 H   0  0  0  0  0  0  0  0  0  0  0  0
   -9.1856  -33.4066   21.7335 H   0  0  0  0  0  0  0  0  0  0  0  0
  -12.6653  -26.9524   27.2760 H   0  0  0  0  0  0  0  0  0  0  0  0
  1  2  1  0
  2  3  1  0
  3  4  1  0
  4  5  2  0
  5  6  1  0
  6  7  1  0
  7  8  2  0
  7  9  2  0
  7 10  1  0
 10 11  1  0
 11 12  1  0
 11 13  1  0
 13 14  2  0
 14 15  1  0
 15 16  2  0
 16 17  1  0
 17 18  2  0
 18 19  1  0
 19 20  1  0
 20 21  2  0
  6 22  2  0
 22  3  1  0
 21 13  1  0
 20 16  1  0
  1 23  1  0
  1 24  1  0
  1 25  1  0
  2 26  1  0
  2 27  1  0
  4 28  1  0
 10 29  1  0
 11 30  1  0
 12 31  1  0
 12 32  1  0
 12 33  1  0
 14 34  1  0
 15 35  1  0
 18 36  1  0
 21 37  1  0
 22 38  1  0
M  END
>  <Energy>  (126) 
493.72215001071925

>  <compound_id>  (126) 
12538

>  <target_id>  (126) 
1

>  <reference_id>  (126) 
68

>  <inspiration_ids>  (126) 
[64, 68]

>  <energy_score>  (126) 
392.14909110399987

>  <distance_score>  (126) 
2.7767365333795055

>  <path>  (126) 
/opt/xchem-fragalysis-2/maxwin/BulkDock/SCRATCH/511016/C12538-P68/C12538-P68.minimised.mol

>  <scratch_subdir>  (126) 
/opt/xchem-fragalysis-2/maxwin/BulkDock/SCRATCH/511016/C12538-P68

>  <fragmenstein_runtime>  (126) 
6.787923097610474

>  <fragmenstein_outcome>  (126) 
too moved

>  <fragmenstein_mode>  (126) 
expansion

>  <fragmenstein_error>  (126) 


$$$$
C12539-P64
     RDKit          3D

 34 36  0  0  0  0  0  0  0  0999 V2000
  -10.5049  -25.1840   28.6109 C   0  0  0  0  0  0  0  0  0  0  0  0
  -11.2758  -24.9435   27.3228 C   0  0  0  0  0  0  0  0  0  0  0  0
  -11.2303  -26.0153   26.3507 N   0  0  0  0  0  0  0  0  0  0  0  0
  -12.0663  -26.1533   25.2999 C   0  0  0  0  0  0  0  0  0  0  0  0
  -11.6716  -27.1134   24.4862 N   0  0  0  0  0  0  0  0  0  0  0  0
  -10.5908  -27.7619   25.0723 C   0  0  0  0  0  0  0  0  0  0  0  0
  -10.3486  -29.1719   24.9126 N   0  0  0  0  0  0  0  0  0  0  0  0
   -9.7262  -30.0026   23.6506 C   0  0  0  0  0  0  0  0  0  0  0  0
   -9.2675  -29.6124   22.6255 O   0  0  0  0  0  0  0  0  0  0  0  0
   -9.9799  -31.4632   24.0824 C   0  0  0  0  0  0  0  0  0  0  0  0
   -9.7995  -32.7987   23.3330 C   0  0  0  0  0  0  0  0  0  0  0  0
  -10.6223  -33.8680   23.7695 C   0  0  0  0  0  0  0  0  0  0  0  0
  -10.2630  -35.2154   23.6103 C   0  0  0  0  0  0  0  0  0  0  0  0
   -9.0692  -35.5326   22.9471 C   0  0  0  0  0  0  0  0  0  0  0  0
   -8.5122  -36.8016   22.8449 N   0  0  0  0  0  0  0  0  0  0  0  0
   -7.4130  -36.7307   22.1316 C   0  0  0  0  0  0  0  0  0  0  0  0
   -6.9941  -35.1843   21.5324 S   0  0  0  0  0  0  0  0  0  0  0  0
   -8.3453  -34.4901   22.3585 C   0  0  0  0  0  0  0  0  0  0  0  0
   -8.6987  -33.1182   22.5279 C   0  0  0  0  0  0  0  0  0  0  0  0
  -10.3638  -27.0576   26.2657 C   0  0  0  0  0  0  0  0  0  0  0  0
   -9.4273  -25.1388   28.4374 H   0  0  0  0  0  0  0  0  0  0  0  0
  -10.7236  -26.1632   29.0459 H   0  0  0  0  0  0  0  0  0  0  0  0
  -10.7574  -24.4165   29.3477 H   0  0  0  0  0  0  0  0  0  0  0  0
  -10.8905  -24.0500   26.8217 H   0  0  0  0  0  0  0  0  0  0  0  0
  -12.3313  -24.7629   27.5493 H   0  0  0  0  0  0  0  0  0  0  0  0
  -12.9338  -25.5226   25.1657 H   0  0  0  0  0  0  0  0  0  0  0  0
  -10.7220  -29.8079   25.5822 H   0  0  0  0  0  0  0  0  0  0  0  0
   -9.3962  -31.5583   24.9944 H   0  0  0  0  0  0  0  0  0  0  0  0
  -11.0351  -31.4816   24.3778 H   0  0  0  0  0  0  0  0  0  0  0  0
  -11.5074  -33.6588   24.3699 H   0  0  0  0  0  0  0  0  0  0  0  0
  -10.8657  -36.0054   24.0457 H   0  0  0  0  0  0  0  0  0  0  0  0
   -6.8082  -37.6004   21.9120 H   0  0  0  0  0  0  0  0  0  0  0  0
   -8.0309  -32.3367   22.1657 H   0  0  0  0  0  0  0  0  0  0  0  0
   -9.6241  -27.1749   27.0399 H   0  0  0  0  0  0  0  0  0  0  0  0
  1  2  1  0
  2  3  1  0
  3  4  1  0
  4  5  2  0
  5  6  1  0
  6  7  1  0
  7  8  1  0
  8  9  2  0
  8 10  1  0
 10 11  1  0
 11 12  2  0
 12 13  1  0
 13 14  2  0
 14 15  1  0
 15 16  2  0
 16 17  1  0
 17 18  1  0
 18 19  2  0
  6 20  2  0
 20  3  1  0
 19 11  1  0
 18 14  1  0
  1 21  1  0
  1 22  1  0
  1 23  1  0
  2 24  1  0
  2 25  1  0
  4 26  1  0
  7 27  1  0
 10 28  1  0
 10 29  1  0
 12 30  1  0
 13 31  1  0
 16 32  1  0
 19 33  1  0
 20 34  1  0
M  END
>  <Energy>  (127) 
68.472448106410127

>  <compound_id>  (127) 
12539

>  <target_id>  (127) 
1

>  <reference_id>  (127) 
64

>  <inspiration_ids>  (127) 
[64, 68]

>  <energy_score>  (127) 
-36.90335893259565

>  <distance_score>  (127) 
2.5908723021727793

>  <path>  (127) 
/opt/xchem-fragalysis-2/maxwin/BulkDock/SCRATCH/511016/C12539-P64/C12539-P64.minimised.mol

>  <scratch_subdir>  (127) 
/opt/xchem-fragalysis-2/maxwin/BulkDock/SCRATCH/511016/C12539-P64

>  <fragmenstein_runtime>  (127) 
2.289074659347534

>  <fragmenstein_outcome>  (127) 
too moved

>  <fragmenstein_mode>  (127) 
expansion

>  <fragmenstein_error>  (127) 


$$$$
C12539-P68
     RDKit          3D

 34 36  0  0  0  0  0  0  0  0999 V2000
  -10.1778  -27.6171   28.5844 C   0  0  0  0  0  0  0  0  0  0  0  0
  -10.4702  -28.0796   27.2897 C   0  0  0  0  0  0  0  0  0  0  0  0
  -11.0390  -27.0658   26.4344 N   0  0  0  0  0  0  0  0  0  0  0  0
  -12.2761  -26.4238   26.2764 C   0  0  0  0  0  0  0  0  0  0  0  0
  -13.1979  -27.2574   25.8151 N   0  0  0  0  0  0  0  0  0  0  0  0
  -12.4280  -28.4407   25.6054 C   0  0  0  0  0  0  0  0  0  0  0  0
  -13.0477  -30.1507   26.1837 N   0  0  0  0  0  0  0  0  0  0  0  0
  -12.9900  -31.6824   25.4542 C   0  0  0  0  0  0  0  0  0  0  0  0
  -12.4531  -32.0541   24.4019 O   0  0  0  0  0  0  0  0  0  0  0  0
  -13.8068  -32.7671   26.1567 C   0  0  0  0  0  0  0  0  0  0  0  0
  -13.3294  -34.1963   25.7127 C   0  0  0  0  0  0  0  0  0  0  0  0
  -14.1923  -35.2865   25.8240 C   0  0  0  0  0  0  0  0  0  0  0  0
  -13.7809  -36.5869   25.4534 C   0  0  0  0  0  0  0  0  0  0  0  0
  -12.4815  -36.8329   24.9531 C   0  0  0  0  0  0  0  0  0  0  0  0
  -11.9437  -38.0573   24.5860 N   0  0  0  0  0  0  0  0  0  0  0  0
  -10.6989  -37.8943   24.1919 C   0  0  0  0  0  0  0  0  0  0  0  0
  -10.0977  -36.2918   24.2179 S   0  0  0  0  0  0  0  0  0  0  0  0
  -11.6174  -35.7523   24.8302 C   0  0  0  0  0  0  0  0  0  0  0  0
  -12.0161  -34.4577   25.2138 C   0  0  0  0  0  0  0  0  0  0  0  0
  -11.1991  -27.7867   25.3417 C   0  0  0  0  0  0  0  0  0  0  0  0
   -9.9877  -26.5542   28.5462 H   0  0  0  0  0  0  0  0  0  0  0  0
  -11.1484  -27.8600   29.0196 H   0  0  0  0  0  0  0  0  0  0  0  0
   -9.3771  -28.1758   29.0823 H   0  0  0  0  0  0  0  0  0  0  0  0
   -9.6460  -28.6338   26.8818 H   0  0  0  0  0  0  0  0  0  0  0  0
  -11.1213  -28.9039   27.4524 H   0  0  0  0  0  0  0  0  0  0  0  0
  -12.3975  -25.3511   26.3959 H   0  0  0  0  0  0  0  0  0  0  0  0
  -13.6316  -30.1808   26.9793 H   0  0  0  0  0  0  0  0  0  0  0  0
  -13.7960  -32.6577   27.2371 H   0  0  0  0  0  0  0  0  0  0  0  0
  -14.8417  -32.6373   25.8171 H   0  0  0  0  0  0  0  0  0  0  0  0
  -15.2042  -35.1517   26.2023 H   0  0  0  0  0  0  0  0  0  0  0  0
  -14.4685  -37.4226   25.5522 H   0  0  0  0  0  0  0  0  0  0  0  0
  -10.0827  -38.7235   23.8687 H   0  0  0  0  0  0  0  0  0  0  0  0
  -11.2561  -33.6830   25.1536 H   0  0  0  0  0  0  0  0  0  0  0  0
  -10.8470  -27.3303   24.4729 H   0  0  0  0  0  0  0  0  0  0  0  0
  1  2  1  0
  2  3  1  0
  3  4  1  0
  4  5  2  0
  5  6  1  0
  6  7  1  0
  7  8  1  0
  8  9  2  0
  8 10  1  0
 10 11  1  0
 11 12  2  0
 12 13  1  0
 13 14  2  0
 14 15  1  0
 15 16  2  0
 16 17  1  0
 17 18  1  0
 18 19  2  0
  6 20  2  0
 20  3  1  0
 19 11  1  0
 18 14  1  0
  1 21  1  0
  1 22  1  0
  1 23  1  0
  2 24  1  0
  2 25  1  0
  4 26  1  0
  7 27  1  0
 10 28  1  0
 10 29  1  0
 12 30  1  0
 13 31  1  0
 16 32  1  0
 19 33  1  0
 20 34  1  0
M  END
>  <Energy>  (128) 
274.84299986122932

>  <compound_id>  (128) 
12539

>  <target_id>  (128) 
1

>  <reference_id>  (128) 
68

>  <inspiration_ids>  (128) 
[64, 68]

>  <energy_score>  (128) 
204.21458539352238

>  <distance_score>  (128) 
3.9719117354819167

>  <path>  (128) 
/opt/xchem-fragalysis-2/maxwin/BulkDock/SCRATCH/511016/C12539-P68/C12539-P68.minimised.mol

>  <scratch_subdir>  (128) 
/opt/xchem-fragalysis-2/maxwin/BulkDock/SCRATCH/511016/C12539-P68

>  <fragmenstein_runtime>  (128) 
6.022269010543823

>  <fragmenstein_outcome>  (128) 
too moved

>  <fragmenstein_mode>  (128) 
expansion

>  <fragmenstein_error>  (128) 


$$$$
C12543-P64
     RDKit          3D

 37 39  0  0  0  0  0  0  0  0999 V2000
  -13.2441  -26.5005   25.8808 C   0  0  0  0  0  0  0  0  0  0  0  0
  -12.0782  -26.7201   24.8968 C   0  0  0  0  0  0  0  0  0  0  0  0
  -10.7238  -27.3420   25.3083 C   0  0  0  0  0  0  0  0  0  0  0  0
  -10.6503  -28.8551   25.2357 N   0  0  0  0  0  0  0  0  0  0  0  0
   -9.9613  -29.8421   24.0978 C   0  0  0  0  0  0  0  0  0  0  0  0
   -9.3077  -29.5702   23.1343 O   0  0  0  0  0  0  0  0  0  0  0  0
  -10.4025  -31.3155   24.4129 C   0  0  0  0  0  0  0  0  0  0  0  0
  -10.0587  -32.6326   23.6543 C   0  0  0  0  0  0  0  0  0  0  0  0
  -10.8578  -33.7574   23.9927 C   0  0  0  0  0  0  0  0  0  0  0  0
  -10.4602  -35.0819   23.7413 C   0  0  0  0  0  0  0  0  0  0  0  0
   -9.2591  -35.3208   23.0590 C   0  0  0  0  0  0  0  0  0  0  0  0
   -8.6692  -36.5648   22.8660 N   0  0  0  0  0  0  0  0  0  0  0  0
   -7.5780  -36.4151   22.1521 C   0  0  0  0  0  0  0  0  0  0  0  0
   -7.2141  -34.8208   21.6487 S   0  0  0  0  0  0  0  0  0  0  0  0
   -8.5669  -34.2185   22.5462 C   0  0  0  0  0  0  0  0  0  0  0  0
   -8.9495  -32.8682   22.8316 C   0  0  0  0  0  0  0  0  0  0  0  0
  -10.5844  -26.6533   26.7146 C   0  0  0  0  0  0  0  0  0  0  0  0
  -10.7321  -27.1388   27.9313 N   0  0  0  0  0  0  0  0  0  0  0  0
  -10.5203  -26.0939   28.8010 C   0  0  0  0  0  0  0  0  0  0  0  0
  -10.4935  -24.9038   28.1310 C   0  0  0  0  0  0  0  0  0  0  0  0
  -10.5556  -25.2565   26.8208 N   0  0  0  0  0  0  0  0  0  0  0  0
  -14.1832  -26.4046   25.3254 H   0  0  0  0  0  0  0  0  0  0  0  0
  -13.1380  -25.5537   26.4215 H   0  0  0  0  0  0  0  0  0  0  0  0
  -13.3540  -27.2863   26.6276 H   0  0  0  0  0  0  0  0  0  0  0  0
  -11.8031  -25.7031   24.6396 H   0  0  0  0  0  0  0  0  0  0  0  0
  -12.4295  -27.2154   24.0179 H   0  0  0  0  0  0  0  0  0  0  0  0
   -9.9846  -26.9562   24.6657 H   0  0  0  0  0  0  0  0  0  0  0  0
  -11.1994  -29.3987   25.8656 H   0  0  0  0  0  0  0  0  0  0  0  0
  -11.4843  -31.3239   24.2886 H   0  0  0  0  0  0  0  0  0  0  0  0
  -10.1947  -31.4581   25.4717 H   0  0  0  0  0  0  0  0  0  0  0  0
  -11.7613  -33.6150   24.5847 H   0  0  0  0  0  0  0  0  0  0  0  0
  -11.0449  -35.9166   24.1132 H   0  0  0  0  0  0  0  0  0  0  0  0
   -6.9496  -37.2496   21.8707 H   0  0  0  0  0  0  0  0  0  0  0  0
   -8.3082  -32.0463   22.5122 H   0  0  0  0  0  0  0  0  0  0  0  0
  -10.4625  -26.2456   29.8712 H   0  0  0  0  0  0  0  0  0  0  0  0
  -10.4252  -23.8771   28.4562 H   0  0  0  0  0  0  0  0  0  0  0  0
  -10.5567  -24.6066   26.0469 H   0  0  0  0  0  0  0  0  0  0  0  0
  1  2  1  0
  2  3  1  0
  3  4  1  0
  4  5  1  0
  5  6  2  0
  5  7  1  0
  7  8  1  0
  8  9  2  0
  9 10  1  0
 10 11  2  0
 11 12  1  0
 12 13  2  0
 13 14  1  0
 14 15  1  0
 15 16  2  0
  3 17  1  0
 17 18  2  0
 18 19  1  0
 19 20  2  0
 20 21  1  0
 16  8  1  0
 21 17  1  0
 15 11  1  0
  1 22  1  0
  1 23  1  0
  1 24  1  0
  2 25  1  0
  2 26  1  0
  3 27  1  0
  4 28  1  0
  7 29  1  0
  7 30  1  0
  9 31  1  0
 10 32  1  0
 13 33  1  0
 16 34  1  0
 19 35  1  0
 20 36  1  0
 21 37  1  0
M  END
>  <Energy>  (129) 
87.83290913805024

>  <compound_id>  (129) 
12543

>  <target_id>  (129) 
1

>  <reference_id>  (129) 
64

>  <inspiration_ids>  (129) 
[64, 68]

>  <energy_score>  (129) 
4.979172873115658

>  <distance_score>  (129) 
2.083416076616226

>  <path>  (129) 
/opt/xchem-fragalysis-2/maxwin/BulkDock/SCRATCH/511016/C12543-P64/C12543-P64.minimised.mol

>  <scratch_subdir>  (129) 
/opt/xchem-fragalysis-2/maxwin/BulkDock/SCRATCH/511016/C12543-P64

>  <fragmenstein_runtime>  (129) 
3.010033369064331

>  <fragmenstein_outcome>  (129) 
too moved

>  <fragmenstein_mode>  (129) 
expansion

>  <fragmenstein_error>  (129) 


$$$$
C12543-P68
     RDKit          3D

 37 39  0  0  0  0  0  0  0  0999 V2000
  -10.4864  -27.4617   25.0686 C   0  0  0  0  0  0  0  0  0  0  0  0
  -11.7499  -27.8892   25.6996 C   0  0  0  0  0  0  0  0  0  0  0  0
  -11.3574  -28.6951   26.9716 C   0  0  0  0  0  0  0  0  0  0  0  0
  -12.7059  -30.1021   26.4131 N   0  0  0  0  0  0  0  0  0  0  0  0
  -12.5687  -31.5349   26.1824 C   0  0  0  0  0  0  0  0  0  0  0  0
  -11.6010  -32.2319   26.1870 O   0  0  0  0  0  0  0  0  0  0  0  0
  -13.8849  -32.3051   25.8384 C   0  0  0  0  0  0  0  0  0  0  0  0
  -13.5161  -33.6094   25.0804 C   0  0  0  0  0  0  0  0  0  0  0  0
  -13.7901  -34.8514   25.6600 C   0  0  0  0  0  0  0  0  0  0  0  0
  -13.1701  -36.0223   25.1892 C   0  0  0  0  0  0  0  0  0  0  0  0
  -12.2296  -35.9597   24.1404 C   0  0  0  0  0  0  0  0  0  0  0  0
  -11.4618  -37.0122   23.6656 N   0  0  0  0  0  0  0  0  0  0  0  0
  -10.6625  -36.5787   22.7173 C   0  0  0  0  0  0  0  0  0  0  0  0
  -10.8158  -34.9267   22.2902 S   0  0  0  0  0  0  0  0  0  0  0  0
  -12.0207  -34.7320   23.5134 C   0  0  0  0  0  0  0  0  0  0  0  0
  -12.7018  -33.5646   23.9210 C   0  0  0  0  0  0  0  0  0  0  0  0
  -11.1469  -26.9324   27.0018 C   0  0  0  0  0  0  0  0  0  0  0  0
  -10.0804  -26.3050   27.4641 N   0  0  0  0  0  0  0  0  0  0  0  0
  -10.0454  -24.9113   27.0731 C   0  0  0  0  0  0  0  0  0  0  0  0
  -11.1852  -24.5413   26.4308 C   0  0  0  0  0  0  0  0  0  0  0  0
  -11.9381  -25.6988   26.3526 N   0  0  0  0  0  0  0  0  0  0  0  0
  -10.0531  -26.5409   25.4182 H   0  0  0  0  0  0  0  0  0  0  0  0
  -10.8010  -27.3290   24.0850 H   0  0  0  0  0  0  0  0  0  0  0  0
   -9.6377  -28.0908   25.1270 H   0  0  0  0  0  0  0  0  0  0  0  0
  -12.2138  -28.4602   25.0220 H   0  0  0  0  0  0  0  0  0  0  0  0
  -12.7356  -27.3741   25.7057 H   0  0  0  0  0  0  0  0  0  0  0  0
  -10.3519  -29.1223   27.1132 H   0  0  0  0  0  0  0  0  0  0  0  0
  -13.6840  -29.8601   26.4156 H   0  0  0  0  0  0  0  0  0  0  0  0
  -14.5988  -31.7222   25.2558 H   0  0  0  0  0  0  0  0  0  0  0  0
  -14.3672  -32.5515   26.7917 H   0  0  0  0  0  0  0  0  0  0  0  0
  -14.4252  -34.9219   26.5411 H   0  0  0  0  0  0  0  0  0  0  0  0
  -13.3541  -36.9761   25.6746 H   0  0  0  0  0  0  0  0  0  0  0  0
   -9.9538  -37.2281   22.2199 H   0  0  0  0  0  0  0  0  0  0  0  0
  -12.4592  -32.6251   23.4375 H   0  0  0  0  0  0  0  0  0  0  0  0
   -9.2623  -24.2545   27.4148 H   0  0  0  0  0  0  0  0  0  0  0  0
  -11.6002  -23.5729   26.1918 H   0  0  0  0  0  0  0  0  0  0  0  0
  -12.9331  -25.7113   26.2185 H   0  0  0  0  0  0  0  0  0  0  0  0
  1  2  1  0
  2  3  1  0
  3  4  1  0
  4  5  1  0
  5  6  2  0
  5  7  1  0
  7  8  1  0
  8  9  2  0
  9 10  1  0
 10 11  2  0
 11 12  1  0
 12 13  2  0
 13 14  1  0
 14 15  1  0
 15 16  2  0
  3 17  1  0
 17 18  2  0
 18 19  1  0
 19 20  2  0
 20 21  1  0
 16  8  1  0
 21 17  1  0
 15 11  1  0
  1 22  1  0
  1 23  1  0
  1 24  1  0
  2 25  1  0
  2 26  1  0
  3 27  1  0
  4 28  1  0
  7 29  1  0
  7 30  1  0
  9 31  1  0
 10 32  1  0
 13 33  1  0
 16 34  1  0
 19 35  1  0
 20 36  1  0
 21 37  1  0
M  END
>  <Energy>  (130) 
391.04621504462835

>  <compound_id>  (130) 
12543

>  <target_id>  (130) 
1

>  <reference_id>  (130) 
68

>  <inspiration_ids>  (130) 
[64, 68]

>  <energy_score>  (130) 
298.31611968498214

>  <distance_score>  (130) 
3.371072514216732

>  <path>  (130) 
/opt/xchem-fragalysis-2/maxwin/BulkDock/SCRATCH/511016/C12543-P68/C12543-P68.minimised.mol

>  <scratch_subdir>  (130) 
/opt/xchem-fragalysis-2/maxwin/BulkDock/SCRATCH/511016/C12543-P68

>  <fragmenstein_runtime>  (130) 
10.641656398773193

>  <fragmenstein_outcome>  (130) 
too moved

>  <fragmenstein_mode>  (130) 
expansion

>  <fragmenstein_error>  (130) 


$$$$
C12550-P64
     RDKit          3D

 40 42  0  0  0  0  0  0  0  0999 V2000
  -11.9923  -27.8446   27.3288 C   0  0  0  0  0  0  0  0  0  0  0  0
  -10.9663  -27.3462   26.2927 C   0  0  0  0  0  0  0  0  0  0  0  0
   -9.7701  -26.8717   27.2258 C   0  0  0  0  0  0  0  0  0  0  0  0
  -10.5377  -28.3301   25.0732 N   0  0  0  0  0  0  0  0  0  0  0  0
  -10.3703  -29.9653   25.0328 C   0  0  0  0  0  0  0  0  0  0  0  0
  -10.6051  -30.7878   25.8719 O   0  0  0  0  0  0  0  0  0  0  0  0
   -9.7565  -30.5631   23.7014 C   0  0  0  0  0  0  0  0  0  0  0  0
  -10.5897  -31.8058   23.1303 C   0  0  0  0  0  0  0  0  0  0  0  0
  -10.0547  -33.2386   23.1993 C   0  0  0  0  0  0  0  0  0  0  0  0
  -10.7235  -34.2081   23.9621 C   0  0  0  0  0  0  0  0  0  0  0  0
  -10.2271  -35.5173   24.1022 C   0  0  0  0  0  0  0  0  0  0  0  0
   -9.0612  -35.9018   23.4154 C   0  0  0  0  0  0  0  0  0  0  0  0
   -8.4250  -37.1339   23.5045 N   0  0  0  0  0  0  0  0  0  0  0  0
   -7.3945  -37.1483   22.6910 C   0  0  0  0  0  0  0  0  0  0  0  0
   -7.1198  -35.7247   21.7830 S   0  0  0  0  0  0  0  0  0  0  0  0
   -8.4619  -34.9703   22.5638 C   0  0  0  0  0  0  0  0  0  0  0  0
   -8.9377  -33.6413   22.4474 C   0  0  0  0  0  0  0  0  0  0  0  0
  -11.6435  -26.0832   25.7433 C   0  0  0  0  0  0  0  0  0  0  0  0
  -12.9133  -25.9813   25.3777 N   0  0  0  0  0  0  0  0  0  0  0  0
  -13.3007  -24.7219   25.7536 C   0  0  0  0  0  0  0  0  0  0  0  0
  -12.2335  -24.0239   26.2403 C   0  0  0  0  0  0  0  0  0  0  0  0
  -11.1644  -24.8158   25.9829 N   0  0  0  0  0  0  0  0  0  0  0  0
  -13.0373  -27.5867   27.1243 H   0  0  0  0  0  0  0  0  0  0  0  0
  -11.9418  -28.9022   27.5490 H   0  0  0  0  0  0  0  0  0  0  0  0
  -11.7645  -27.3443   28.2590 H   0  0  0  0  0  0  0  0  0  0  0  0
   -9.6777  -25.8047   27.4129 H   0  0  0  0  0  0  0  0  0  0  0  0
   -9.8488  -27.2121   28.2644 H   0  0  0  0  0  0  0  0  0  0  0  0
   -8.8239  -27.2530   26.8685 H   0  0  0  0  0  0  0  0  0  0  0  0
  -10.3312  -27.9535   24.1873 H   0  0  0  0  0  0  0  0  0  0  0  0
   -8.7475  -30.8958   23.9169 H   0  0  0  0  0  0  0  0  0  0  0  0
   -9.6475  -29.7896   22.9366 H   0  0  0  0  0  0  0  0  0  0  0  0
  -10.7584  -31.6119   22.0613 H   0  0  0  0  0  0  0  0  0  0  0  0
  -11.5861  -31.8070   23.5893 H   0  0  0  0  0  0  0  0  0  0  0  0
  -11.6197  -33.9347   24.5173 H   0  0  0  0  0  0  0  0  0  0  0  0
  -10.7286  -36.2279   24.7515 H   0  0  0  0  0  0  0  0  0  0  0  0
   -6.7540  -38.0140   22.5866 H   0  0  0  0  0  0  0  0  0  0  0  0
   -8.4154  -32.9309   21.8096 H   0  0  0  0  0  0  0  0  0  0  0  0
  -14.3269  -24.3949   25.6537 H   0  0  0  0  0  0  0  0  0  0  0  0
  -12.1095  -23.0370   26.6518 H   0  0  0  0  0  0  0  0  0  0  0  0
  -10.2243  -24.5359   26.2091 H   0  0  0  0  0  0  0  0  0  0  0  0
  1  2  1  0
  2  3  1  0
  2  4  1  0
  4  5  1  0
  5  6  2  0
  5  7  1  0
  7  8  1  0
  8  9  1  0
  9 10  2  0
 10 11  1  0
 11 12  2  0
 12 13  1  0
 13 14  2  0
 14 15  1  0
 15 16  1  0
 16 17  2  0
  2 18  1  0
 18 19  2  0
 19 20  1  0
 20 21  2  0
 21 22  1  0
 17  9  1  0
 22 18  1  0
 16 12  1  0
  1 23  1  0
  1 24  1  0
  1 25  1  0
  3 26  1  0
  3 27  1  0
  3 28  1  0
  4 29  1  0
  7 30  1  0
  7 31  1  0
  8 32  1  0
  8 33  1  0
 10 34  1  0
 11 35  1  0
 14 36  1  0
 17 37  1  0
 20 38  1  0
 21 39  1  0
 22 40  1  0
M  END
>  <Energy>  (131) 
94.151263853852328

>  <compound_id>  (131) 
12550

>  <target_id>  (131) 
1

>  <reference_id>  (131) 
64

>  <inspiration_ids>  (131) 
[64, 68]

>  <energy_score>  (131) 
10.309811048691557

>  <distance_score>  (131) 
2.096000826654017

>  <path>  (131) 
/opt/xchem-fragalysis-2/maxwin/BulkDock/SCRATCH/511016/C12550-P64/C12550-P64.minimised.mol

>  <scratch_subdir>  (131) 
/opt/xchem-fragalysis-2/maxwin/BulkDock/SCRATCH/511016/C12550-P64

>  <fragmenstein_runtime>  (131) 
2.62660813331604

>  <fragmenstein_outcome>  (131) 
too moved

>  <fragmenstein_mode>  (131) 
expansion

>  <fragmenstein_error>  (131) 


$$$$
C12550-P68
     RDKit          3D

 40 42  0  0  0  0  0  0  0  0999 V2000
  -10.7222  -27.9978   27.4528 C   0  0  0  0  0  0  0  0  0  0  0  0
  -11.4373  -27.5797   26.1717 C   0  0  0  0  0  0  0  0  0  0  0  0
  -10.3549  -27.3636   25.3123 C   0  0  0  0  0  0  0  0  0  0  0  0
  -12.6355  -28.3211   25.8181 N   0  0  0  0  0  0  0  0  0  0  0  0
  -13.0505  -30.1298   26.0431 C   0  0  0  0  0  0  0  0  0  0  0  0
  -12.3573  -31.0545   26.4405 O   0  0  0  0  0  0  0  0  0  0  0  0
  -14.6116  -30.6529   25.8181 C   0  0  0  0  0  0  0  0  0  0  0  0
  -14.8829  -32.0212   25.0465 C   0  0  0  0  0  0  0  0  0  0  0  0
  -13.8654  -33.1570   24.9015 C   0  0  0  0  0  0  0  0  0  0  0  0
  -13.9866  -34.2959   25.7026 C   0  0  0  0  0  0  0  0  0  0  0  0
  -13.1399  -35.4071   25.5376 C   0  0  0  0  0  0  0  0  0  0  0  0
  -12.0809  -35.3691   24.6100 C   0  0  0  0  0  0  0  0  0  0  0  0
  -11.1229  -36.3535   24.4182 N   0  0  0  0  0  0  0  0  0  0  0  0
  -10.2870  -35.9717   23.4793 C   0  0  0  0  0  0  0  0  0  0  0  0
  -10.6140  -34.4596   22.7414 S   0  0  0  0  0  0  0  0  0  0  0  0
  -11.9641  -34.2436   23.7970 C   0  0  0  0  0  0  0  0  0  0  0  0
  -12.8695  -33.1614   23.8965 C   0  0  0  0  0  0  0  0  0  0  0  0
  -12.1075  -26.1328   26.1663 C   0  0  0  0  0  0  0  0  0  0  0  0
  -13.3480  -25.8581   25.7609 N   0  0  0  0  0  0  0  0  0  0  0  0
  -13.4039  -24.4882   25.6777 C   0  0  0  0  0  0  0  0  0  0  0  0
  -12.2637  -23.9035   26.1778 C   0  0  0  0  0  0  0  0  0  0  0  0
  -11.4029  -24.9380   26.3770 N   0  0  0  0  0  0  0  0  0  0  0  0
  -10.1018  -28.8884   27.3370 H   0  0  0  0  0  0  0  0  0  0  0  0
  -11.3656  -28.1851   28.2909 H   0  0  0  0  0  0  0  0  0  0  0  0
  -10.0874  -27.2001   27.8047 H   0  0  0  0  0  0  0  0  0  0  0  0
   -9.8589  -26.4492   25.6306 H   0  0  0  0  0  0  0  0  0  0  0  0
  -10.8455  -27.2985   24.3870 H   0  0  0  0  0  0  0  0  0  0  0  0
   -9.6040  -28.0892   25.1988 H   0  0  0  0  0  0  0  0  0  0  0  0
  -13.4669  -27.7822   25.5481 H   0  0  0  0  0  0  0  0  0  0  0  0
  -15.3249  -29.8734   25.5377 H   0  0  0  0  0  0  0  0  0  0  0  0
  -14.8811  -30.9209   26.8497 H   0  0  0  0  0  0  0  0  0  0  0  0
  -15.2366  -31.7929   24.0354 H   0  0  0  0  0  0  0  0  0  0  0  0
  -15.7834  -32.4481   25.5136 H   0  0  0  0  0  0  0  0  0  0  0  0
  -14.7643  -34.3499   26.4632 H   0  0  0  0  0  0  0  0  0  0  0  0
  -13.2685  -36.2888   26.1580 H   0  0  0  0  0  0  0  0  0  0  0  0
   -9.4447  -36.5801   23.1762 H   0  0  0  0  0  0  0  0  0  0  0  0
  -12.7734  -32.3461   23.1886 H   0  0  0  0  0  0  0  0  0  0  0  0
  -14.2716  -23.9639   25.3010 H   0  0  0  0  0  0  0  0  0  0  0  0
  -11.9978  -22.8729   26.3571 H   0  0  0  0  0  0  0  0  0  0  0  0
  -10.5025  -24.8679   26.8310 H   0  0  0  0  0  0  0  0  0  0  0  0
  1  2  1  0
  2  3  1  0
  2  4  1  0
  4  5  1  0
  5  6  2  0
  5  7  1  0
  7  8  1  0
  8  9  1  0
  9 10  2  0
 10 11  1  0
 11 12  2  0
 12 13  1  0
 13 14  2  0
 14 15  1  0
 15 16  1  0
 16 17  2  0
  2 18  1  0
 18 19  2  0
 19 20  1  0
 20 21  2  0
 21 22  1  0
 17  9  1  0
 22 18  1  0
 16 12  1  0
  1 23  1  0
  1 24  1  0
  1 25  1  0
  3 26  1  0
  3 27  1  0
  3 28  1  0
  4 29  1  0
  7 30  1  0
  7 31  1  0
  8 32  1  0
  8 33  1  0
 10 34  1  0
 11 35  1  0
 14 36  1  0
 17 37  1  0
 20 38  1  0
 21 39  1  0
 22 40  1  0
M  END
>  <Energy>  (132) 
147.24856808093949

>  <compound_id>  (132) 
12550

>  <target_id>  (132) 
1

>  <reference_id>  (132) 
68

>  <inspiration_ids>  (132) 
[64, 68]

>  <energy_score>  (132) 
68.59581287954995

>  <distance_score>  (132) 
3.7353449305764252

>  <path>  (132) 
/opt/xchem-fragalysis-2/maxwin/BulkDock/SCRATCH/511016/C12550-P68/C12550-P68.minimised.mol

>  <scratch_subdir>  (132) 
/opt/xchem-fragalysis-2/maxwin/BulkDock/SCRATCH/511016/C12550-P68

>  <fragmenstein_runtime>  (132) 
9.38614821434021

>  <fragmenstein_outcome>  (132) 
too moved

>  <fragmenstein_mode>  (132) 
expansion

>  <fragmenstein_error>  (132) 


$$$$
C12538-P64
     RDKit          3D

 38 40  0  0  0  0  0  0  0  0999 V2000
  -10.9391  -24.0880   27.2216 C   0  0  0  0  0  0  0  0  0  0  0  0
  -11.5574  -25.4527   27.3369 C   0  0  0  0  0  0  0  0  0  0  0  0
  -11.3207  -26.3183   26.2085 N   0  0  0  0  0  0  0  0  0  0  0  0
  -12.1258  -26.4509   25.1350 C   0  0  0  0  0  0  0  0  0  0  0  0
  -11.6958  -27.3930   24.3171 N   0  0  0  0  0  0  0  0  0  0  0  0
  -10.7058  -28.1038   25.0187 C   0  0  0  0  0  0  0  0  0  0  0  0
  -10.0423  -30.0409   24.6739 S   0  0  0  0  0  0  0  0  0  0  0  0
   -8.6426  -29.7490   24.6336 O   0  0  0  0  0  0  0  0  0  0  0  0
  -10.6649  -30.7865   25.7569 O   0  0  0  0  0  0  0  0  0  0  0  0
  -10.3088  -31.0942   23.2612 N   0  0  0  0  0  0  0  0  0  0  0  0
  -11.0908  -32.3828   23.4687 C   0  0  0  0  0  0  0  0  0  0  0  0
  -12.1989  -32.5164   22.4246 C   0  0  0  0  0  0  0  0  0  0  0  0
  -10.2965  -33.6972   23.4151 C   0  0  0  0  0  0  0  0  0  0  0  0
  -10.7368  -34.7790   24.2041 C   0  0  0  0  0  0  0  0  0  0  0  0
  -10.0412  -35.9936   24.2567 C   0  0  0  0  0  0  0  0  0  0  0  0
   -8.9018  -36.1744   23.4558 C   0  0  0  0  0  0  0  0  0  0  0  0
   -8.1009  -37.3073   23.4350 N   0  0  0  0  0  0  0  0  0  0  0  0
   -7.1539  -37.1467   22.5405 C   0  0  0  0  0  0  0  0  0  0  0  0
   -7.1509  -35.6637   21.6879 S   0  0  0  0  0  0  0  0  0  0  0  0
   -8.5190  -35.1380   22.5992 C   0  0  0  0  0  0  0  0  0  0  0  0
   -9.1939  -33.8938   22.5685 C   0  0  0  0  0  0  0  0  0  0  0  0
  -10.3521  -27.2657   26.0923 C   0  0  0  0  0  0  0  0  0  0  0  0
  -11.3132  -23.5848   26.3270 H   0  0  0  0  0  0  0  0  0  0  0  0
  -11.1944  -23.4736   28.0907 H   0  0  0  0  0  0  0  0  0  0  0  0
   -9.8534  -24.1634   27.1659 H   0  0  0  0  0  0  0  0  0  0  0  0
  -12.6394  -25.3257   27.3956 H   0  0  0  0  0  0  0  0  0  0  0  0
  -11.1917  -25.9632   28.2323 H   0  0  0  0  0  0  0  0  0  0  0  0
  -13.0139  -25.8490   25.0021 H   0  0  0  0  0  0  0  0  0  0  0  0
  -10.7602  -30.4692   22.5879 H   0  0  0  0  0  0  0  0  0  0  0  0
  -11.6000  -32.3459   24.4352 H   0  0  0  0  0  0  0  0  0  0  0  0
  -11.8022  -32.4117   21.4078 H   0  0  0  0  0  0  0  0  0  0  0  0
  -12.9730  -31.7616   22.5563 H   0  0  0  0  0  0  0  0  0  0  0  0
  -12.7066  -33.4865   22.4842 H   0  0  0  0  0  0  0  0  0  0  0  0
  -11.6149  -34.6676   24.8388 H   0  0  0  0  0  0  0  0  0  0  0  0
  -10.3695  -36.7922   24.9140 H   0  0  0  0  0  0  0  0  0  0  0  0
   -6.4133  -37.9097   22.3404 H   0  0  0  0  0  0  0  0  0  0  0  0
   -8.8323  -33.0889   21.9310 H   0  0  0  0  0  0  0  0  0  0  0  0
   -9.5583  -27.2731   26.8229 H   0  0  0  0  0  0  0  0  0  0  0  0
  1  2  1  0
  2  3  1  0
  3  4  1  0
  4  5  2  0
  5  6  1  0
  6  7  1  0
  7  8  2  0
  7  9  2  0
  7 10  1  0
 10 11  1  0
 11 12  1  0
 11 13  1  0
 13 14  2  0
 14 15  1  0
 15 16  2  0
 16 17  1  0
 17 18  2  0
 18 19  1  0
 19 20  1  0
 20 21  2  0
  6 22  2  0
 22  3  1  0
 21 13  1  0
 20 16  1  0
  1 23  1  0
  1 24  1  0
  1 25  1  0
  2 26  1  0
  2 27  1  0
  4 28  1  0
 10 29  1  0
 11 30  1  0
 12 31  1  0
 12 32  1  0
 12 33  1  0
 14 34  1  0
 15 35  1  0
 18 36  1  0
 21 37  1  0
 22 38  1  0
M  END
>  <Energy>  (133) 
84.135148543916983

>  <compound_id>  (133) 
12538

>  <target_id>  (133) 
1

>  <reference_id>  (133) 
64

>  <inspiration_ids>  (133) 
[64, 68]

>  <energy_score>  (133) 
-28.66609973849083

>  <distance_score>  (133) 
2.1361527588219515

>  <path>  (133) 
/opt/xchem-fragalysis-2/maxwin/BulkDock/SCRATCH/511016/C12538-P64/C12538-P64.minimised.mol

>  <scratch_subdir>  (133) 
/opt/xchem-fragalysis-2/maxwin/BulkDock/SCRATCH/511016/C12538-P64

>  <fragmenstein_runtime>  (133) 
2.6494617462158203

>  <fragmenstein_outcome>  (133) 
too moved

>  <fragmenstein_mode>  (133) 
expansion

>  <fragmenstein_error>  (133) 


$$$$
C12538-P68
     RDKit          3D

 38 40  0  0  0  0  0  0  0  0999 V2000
  -11.3622  -23.2705   27.1704 C   0  0  0  0  0  0  0  0  0  0  0  0
  -10.8926  -24.5060   26.4668 C   0  0  0  0  0  0  0  0  0  0  0  0
  -11.8648  -25.5530   26.1822 N   0  0  0  0  0  0  0  0  0  0  0  0
  -13.0608  -25.7492   25.5755 C   0  0  0  0  0  0  0  0  0  0  0  0
  -12.9347  -27.0254   25.0783 N   0  0  0  0  0  0  0  0  0  0  0  0
  -11.6822  -27.5711   25.5645 C   0  0  0  0  0  0  0  0  0  0  0  0
   -9.9081  -28.0101   25.2628 S   0  0  0  0  0  0  0  0  0  0  0  0
   -9.5790  -26.6357   25.2308 O   0  0  0  0  0  0  0  0  0  0  0  0
   -9.8396  -28.6415   26.6189 O   0  0  0  0  0  0  0  0  0  0  0  0
   -8.6345  -29.3703   23.7327 N   0  0  0  0  0  0  0  0  0  0  0  0
   -9.7435  -31.0517   23.2425 C   0  0  0  0  0  0  0  0  0  0  0  0
  -10.5496  -31.0613   21.8745 C   0  0  0  0  0  0  0  0  0  0  0  0
  -10.1619  -32.7630   23.5673 C   0  0  0  0  0  0  0  0  0  0  0  0
  -11.0257  -33.3076   24.5378 C   0  0  0  0  0  0  0  0  0  0  0  0
  -11.2711  -34.6971   24.6604 C   0  0  0  0  0  0  0  0  0  0  0  0
  -10.6251  -35.6232   23.8337 C   0  0  0  0  0  0  0  0  0  0  0  0
  -10.6791  -37.0018   23.9235 N   0  0  0  0  0  0  0  0  0  0  0  0
   -9.9315  -37.5266   22.9783 C   0  0  0  0  0  0  0  0  0  0  0  0
   -9.2071  -36.4243   21.8857 S   0  0  0  0  0  0  0  0  0  0  0  0
   -9.8691  -35.1166   22.7896 C   0  0  0  0  0  0  0  0  0  0  0  0
   -9.7309  -33.7268   22.6044 C   0  0  0  0  0  0  0  0  0  0  0  0
  -11.7722  -26.8495   26.6771 C   0  0  0  0  0  0  0  0  0  0  0  0
  -11.9223  -22.5948   26.5228 H   0  0  0  0  0  0  0  0  0  0  0  0
  -11.9530  -23.5111   28.0130 H   0  0  0  0  0  0  0  0  0  0  0  0
  -10.5651  -22.7750   27.7118 H   0  0  0  0  0  0  0  0  0  0  0  0
  -10.1024  -24.9536   27.0805 H   0  0  0  0  0  0  0  0  0  0  0  0
  -10.3670  -24.2512   25.5579 H   0  0  0  0  0  0  0  0  0  0  0  0
  -13.8095  -25.0064   25.3332 H   0  0  0  0  0  0  0  0  0  0  0  0
   -8.7416  -28.7997   22.8843 H   0  0  0  0  0  0  0  0  0  0  0  0
   -8.8610  -31.5569   23.6021 H   0  0  0  0  0  0  0  0  0  0  0  0
  -10.1559  -31.7263   21.1087 H   0  0  0  0  0  0  0  0  0  0  0  0
  -10.6258  -30.1107   21.3889 H   0  0  0  0  0  0  0  0  0  0  0  0
  -11.5837  -31.3954   22.0403 H   0  0  0  0  0  0  0  0  0  0  0  0
  -11.5636  -32.7329   25.2810 H   0  0  0  0  0  0  0  0  0  0  0  0
  -11.9525  -35.0684   25.4158 H   0  0  0  0  0  0  0  0  0  0  0  0
   -9.7952  -38.5958   22.8789 H   0  0  0  0  0  0  0  0  0  0  0  0
   -9.1856  -33.4066   21.7335 H   0  0  0  0  0  0  0  0  0  0  0  0
  -12.6653  -26.9524   27.2760 H   0  0  0  0  0  0  0  0  0  0  0  0
  1  2  1  0
  2  3  1  0
  3  4  1  0
  4  5  2  0
  5  6  1  0
  6  7  1  0
  7  8  2  0
  7  9  2  0
  7 10  1  0
 10 11  1  0
 11 12  1  0
 11 13  1  0
 13 14  2  0
 14 15  1  0
 15 16  2  0
 16 17  1  0
 17 18  2  0
 18 19  1  0
 19 20  1  0
 20 21  2  0
  6 22  2  0
 22  3  1  0
 21 13  1  0
 20 16  1  0
  1 23  1  0
  1 24  1  0
  1 25  1  0
  2 26  1  0
  2 27  1  0
  4 28  1  0
 10 29  1  0
 11 30  1  0
 12 31  1  0
 12 32  1  0
 12 33  1  0
 14 34  1  0
 15 35  1  0
 18 36  1  0
 21 37  1  0
 22 38  1  0
M  END
>  <Energy>  (134) 
493.72215001071925

>  <compound_id>  (134) 
12538

>  <target_id>  (134) 
1

>  <reference_id>  (134) 
68

>  <inspiration_ids>  (134) 
[64, 68]

>  <energy_score>  (134) 
392.14909110399987

>  <distance_score>  (134) 
2.7767365333795055

>  <path>  (134) 
/opt/xchem-fragalysis-2/maxwin/BulkDock/SCRATCH/511016/C12538-P68/C12538-P68.minimised.mol

>  <scratch_subdir>  (134) 
/opt/xchem-fragalysis-2/maxwin/BulkDock/SCRATCH/511016/C12538-P68

>  <fragmenstein_runtime>  (134) 
8.870288848876953

>  <fragmenstein_outcome>  (134) 
too moved

>  <fragmenstein_mode>  (134) 
expansion

>  <fragmenstein_error>  (134) 


$$$$
C12551-P64
     RDKit          3D

 41 43  0  0  0  0  0  0  0  0999 V2000
  -12.4057  -32.4773   23.7650 C   0  0  0  0  0  0  0  0  0  0  0  0
  -11.0125  -32.3770   23.1483 C   0  0  0  0  0  0  0  0  0  0  0  0
  -10.2996  -31.0473   23.3185 N   0  0  0  0  0  0  0  0  0  0  0  0
  -10.1385  -30.1035   24.7751 S   0  0  0  0  0  0  0  0  0  0  0  0
  -10.7576  -30.9214   25.8042 O   0  0  0  0  0  0  0  0  0  0  0  0
   -8.7501  -29.7525   24.7790 O   0  0  0  0  0  0  0  0  0  0  0  0
  -10.8347  -28.1786   25.2406 C   0  0  0  0  0  0  0  0  0  0  0  0
  -11.2524  -27.6846   26.5129 C   0  0  0  0  0  0  0  0  0  0  0  0
  -11.2456  -26.3339   26.4497 N   0  0  0  0  0  0  0  0  0  0  0  0
  -11.3038  -25.4008   27.5601 C   0  0  0  0  0  0  0  0  0  0  0  0
  -10.9480  -23.9671   27.2255 C   0  0  0  0  0  0  0  0  0  0  0  0
  -10.4206  -25.8322   28.7342 C   0  0  0  0  0  0  0  0  0  0  0  0
  -11.2422  -26.0593   25.1325 C   0  0  0  0  0  0  0  0  0  0  0  0
  -11.0584  -27.1353   24.3792 N   0  0  0  0  0  0  0  0  0  0  0  0
  -10.2038  -33.6811   23.2992 C   0  0  0  0  0  0  0  0  0  0  0  0
  -10.6065  -34.7189   24.1632 C   0  0  0  0  0  0  0  0  0  0  0  0
   -9.9048  -35.9293   24.2706 C   0  0  0  0  0  0  0  0  0  0  0  0
   -8.7860  -36.1567   23.4563 C   0  0  0  0  0  0  0  0  0  0  0  0
   -7.9951  -37.2960   23.4682 N   0  0  0  0  0  0  0  0  0  0  0  0
   -7.0692  -37.1833   22.5449 C   0  0  0  0  0  0  0  0  0  0  0  0
   -7.0686  -35.7349   21.6344 S   0  0  0  0  0  0  0  0  0  0  0  0
   -8.4163  -35.1631   22.5467 C   0  0  0  0  0  0  0  0  0  0  0  0
   -9.0948  -33.9231   22.4662 C   0  0  0  0  0  0  0  0  0  0  0  0
  -12.8959  -33.4174   23.4816 H   0  0  0  0  0  0  0  0  0  0  0  0
  -13.0628  -31.7068   23.3783 H   0  0  0  0  0  0  0  0  0  0  0  0
  -12.4019  -32.4334   24.8548 H   0  0  0  0  0  0  0  0  0  0  0  0
  -11.2342  -32.3731   22.0670 H   0  0  0  0  0  0  0  0  0  0  0  0
  -10.6234  -30.3663   22.6256 H   0  0  0  0  0  0  0  0  0  0  0  0
  -11.4833  -28.1777   27.4405 H   0  0  0  0  0  0  0  0  0  0  0  0
  -12.3523  -25.3691   27.8122 H   0  0  0  0  0  0  0  0  0  0  0  0
  -11.0741  -23.3110   28.0938 H   0  0  0  0  0  0  0  0  0  0  0  0
  -11.5734  -23.5655   26.4235 H   0  0  0  0  0  0  0  0  0  0  0  0
   -9.9034  -23.9407   26.9260 H   0  0  0  0  0  0  0  0  0  0  0  0
   -9.3705  -25.8512   28.4302 H   0  0  0  0  0  0  0  0  0  0  0  0
  -10.5146  -25.1389   29.5769 H   0  0  0  0  0  0  0  0  0  0  0  0
  -10.6667  -26.8302   29.1023 H   0  0  0  0  0  0  0  0  0  0  0  0
  -11.2861  -25.0412   24.7809 H   0  0  0  0  0  0  0  0  0  0  0  0
  -11.4655  -34.6002   24.8199 H   0  0  0  0  0  0  0  0  0  0  0  0
  -10.2200  -36.6898   24.9778 H   0  0  0  0  0  0  0  0  0  0  0  0
   -6.3414  -37.9622   22.3592 H   0  0  0  0  0  0  0  0  0  0  0  0
   -8.7489  -33.1582   21.7726 H   0  0  0  0  0  0  0  0  0  0  0  0
  1  2  1  0
  2  3  1  0
  3  4  1  0
  4  5  2  0
  4  6  2  0
  4  7  1  0
  7  8  2  0
  8  9  1  0
  9 10  1  0
 10 11  1  0
 10 12  1  0
  9 13  1  0
 13 14  2  0
  2 15  1  0
 15 16  2  0
 16 17  1  0
 17 18  2  0
 18 19  1  0
 19 20  2  0
 20 21  1  0
 21 22  1  0
 22 23  2  0
 14  7  1  0
 23 15  1  0
 22 18  1  0
  1 24  1  0
  1 25  1  0
  1 26  1  0
  2 27  1  0
  3 28  1  0
  8 29  1  0
 10 30  1  0
 11 31  1  0
 11 32  1  0
 11 33  1  0
 12 34  1  0
 12 35  1  0
 12 36  1  0
 13 37  1  0
 16 38  1  0
 17 39  1  0
 20 40  1  0
 23 41  1  0
M  END
>  <Energy>  (135) 
104.62113472267471

>  <compound_id>  (135) 
12551

>  <target_id>  (135) 
1

>  <reference_id>  (135) 
64

>  <inspiration_ids>  (135) 
[64, 68]

>  <energy_score>  (135) 
12.38428729115347

>  <distance_score>  (135) 
2.096467313315013

>  <path>  (135) 
/opt/xchem-fragalysis-2/maxwin/BulkDock/SCRATCH/511016/C12551-P64/C12551-P64.minimised.mol

>  <scratch_subdir>  (135) 
/opt/xchem-fragalysis-2/maxwin/BulkDock/SCRATCH/511016/C12551-P64

>  <fragmenstein_runtime>  (135) 
3.893050193786621

>  <fragmenstein_outcome>  (135) 
too moved

>  <fragmenstein_mode>  (135) 
expansion

>  <fragmenstein_error>  (135) 


$$$$
C12551-P68
     RDKit          3D

 41 43  0  0  0  0  0  0  0  0999 V2000
  -11.4054  -31.9468   21.6845 C   0  0  0  0  0  0  0  0  0  0  0  0
  -10.0524  -32.3022   22.3291 C   0  0  0  0  0  0  0  0  0  0  0  0
   -9.5517  -31.0231   23.2796 N   0  0  0  0  0  0  0  0  0  0  0  0
   -8.2555  -29.1722   23.3174 S   0  0  0  0  0  0  0  0  0  0  0  0
   -6.8701  -29.0571   23.6543 O   0  0  0  0  0  0  0  0  0  0  0  0
   -8.5659  -28.7879   21.9823 O   0  0  0  0  0  0  0  0  0  0  0  0
   -9.4569  -28.0066   24.9604 C   0  0  0  0  0  0  0  0  0  0  0  0
  -10.5614  -27.1767   25.2153 C   0  0  0  0  0  0  0  0  0  0  0  0
  -10.5135  -26.5385   26.4444 N   0  0  0  0  0  0  0  0  0  0  0  0
  -10.5015  -25.0454   26.5218 C   0  0  0  0  0  0  0  0  0  0  0  0
  -11.8537  -24.3158   26.3806 C   0  0  0  0  0  0  0  0  0  0  0  0
   -9.7461  -24.2904   27.6156 C   0  0  0  0  0  0  0  0  0  0  0  0
  -10.3563  -27.6340   27.2186 C   0  0  0  0  0  0  0  0  0  0  0  0
   -9.7966  -28.5854   26.4696 N   0  0  0  0  0  0  0  0  0  0  0  0
  -10.2016  -33.6438   23.0751 C   0  0  0  0  0  0  0  0  0  0  0  0
  -11.1861  -33.8725   24.0373 C   0  0  0  0  0  0  0  0  0  0  0  0
  -11.2932  -35.1103   24.6911 C   0  0  0  0  0  0  0  0  0  0  0  0
  -10.3522  -36.1297   24.4550 C   0  0  0  0  0  0  0  0  0  0  0  0
  -10.2753  -37.3490   25.1064 N   0  0  0  0  0  0  0  0  0  0  0  0
   -9.2429  -38.0240   24.6475 C   0  0  0  0  0  0  0  0  0  0  0  0
   -8.3708  -37.2997   23.3625 S   0  0  0  0  0  0  0  0  0  0  0  0
   -9.3943  -35.9187   23.4696 C   0  0  0  0  0  0  0  0  0  0  0  0
   -9.3503  -34.7221   22.7371 C   0  0  0  0  0  0  0  0  0  0  0  0
  -12.1804  -31.7421   22.4252 H   0  0  0  0  0  0  0  0  0  0  0  0
  -11.7634  -32.7692   21.0541 H   0  0  0  0  0  0  0  0  0  0  0  0
  -11.3067  -31.0663   21.0423 H   0  0  0  0  0  0  0  0  0  0  0  0
   -9.3983  -32.4910   21.4783 H   0  0  0  0  0  0  0  0  0  0  0  0
  -10.0000  -30.3889   22.5814 H   0  0  0  0  0  0  0  0  0  0  0  0
  -11.1564  -26.5614   24.6965 H   0  0  0  0  0  0  0  0  0  0  0  0
   -9.9381  -24.7814   25.6285 H   0  0  0  0  0  0  0  0  0  0  0  0
  -11.8020  -23.4365   25.7313 H   0  0  0  0  0  0  0  0  0  0  0  0
  -12.6906  -24.9676   26.1095 H   0  0  0  0  0  0  0  0  0  0  0  0
  -12.0722  -23.8189   27.3079 H   0  0  0  0  0  0  0  0  0  0  0  0
  -10.2609  -23.3939   27.9768 H   0  0  0  0  0  0  0  0  0  0  0  0
   -9.5668  -24.8875   28.4907 H   0  0  0  0  0  0  0  0  0  0  0  0
   -8.8096  -23.9106   27.2274 H   0  0  0  0  0  0  0  0  0  0  0  0
  -10.4238  -27.7078   28.2851 H   0  0  0  0  0  0  0  0  0  0  0  0
  -11.9015  -33.1003   24.3001 H   0  0  0  0  0  0  0  0  0  0  0  0
  -12.0894  -35.2794   25.4062 H   0  0  0  0  0  0  0  0  0  0  0  0
   -8.9610  -38.9909   25.0464 H   0  0  0  0  0  0  0  0  0  0  0  0
   -8.5979  -34.6267   21.9633 H   0  0  0  0  0  0  0  0  0  0  0  0
  1  2  1  0
  2  3  1  0
  3  4  1  0
  4  5  2  0
  4  6  2  0
  4  7  1  0
  7  8  2  0
  8  9  1  0
  9 10  1  0
 10 11  1  0
 10 12  1  0
  9 13  1  0
 13 14  2  0
  2 15  1  0
 15 16  2  0
 16 17  1  0
 17 18  2  0
 18 19  1  0
 19 20  2  0
 20 21  1  0
 21 22  1  0
 22 23  2  0
 14  7  1  0
 23 15  1  0
 22 18  1  0
  1 24  1  0
  1 25  1  0
  1 26  1  0
  2 27  1  0
  3 28  1  0
  8 29  1  0
 10 30  1  0
 11 31  1  0
 11 32  1  0
 11 33  1  0
 12 34  1  0
 12 35  1  0
 12 36  1  0
 13 37  1  0
 16 38  1  0
 17 39  1  0
 20 40  1  0
 23 41  1  0
M  END
>  <Energy>  (136) 
366.98804262574066

>  <compound_id>  (136) 
12551

>  <target_id>  (136) 
1

>  <reference_id>  (136) 
68

>  <inspiration_ids>  (136) 
[64, 68]

>  <energy_score>  (136) 
249.46066107024222

>  <distance_score>  (136) 
2.9364377576851886

>  <path>  (136) 
/opt/xchem-fragalysis-2/maxwin/BulkDock/SCRATCH/511016/C12551-P68/C12551-P68.minimised.mol

>  <scratch_subdir>  (136) 
/opt/xchem-fragalysis-2/maxwin/BulkDock/SCRATCH/511016/C12551-P68

>  <fragmenstein_runtime>  (136) 
7.366254806518555

>  <fragmenstein_outcome>  (136) 
too moved

>  <fragmenstein_mode>  (136) 
expansion

>  <fragmenstein_error>  (136) 


$$$$
C12552-P64
     RDKit          3D

 41 43  0  0  0  0  0  0  0  0999 V2000
  -11.8914  -23.6498   25.1831 C   0  0  0  0  0  0  0  0  0  0  0  0
  -13.1859  -24.0714   25.8338 C   0  0  0  0  0  0  0  0  0  0  0  0
  -14.3899  -23.9604   24.8994 C   0  0  0  0  0  0  0  0  0  0  0  0
  -13.0712  -25.3208   26.5428 N   0  0  0  0  0  0  0  0  0  0  0  0
  -13.9620  -26.3446   26.5913 C   0  0  0  0  0  0  0  0  0  0  0  0
  -13.3131  -27.4626   26.8180 N   0  0  0  0  0  0  0  0  0  0  0  0
  -11.9748  -27.0816   26.7750 C   0  0  0  0  0  0  0  0  0  0  0  0
  -10.7459  -27.5687   25.5762 S   0  0  0  0  0  0  0  0  0  0  0  0
  -11.2436  -26.8339   24.4454 O   0  0  0  0  0  0  0  0  0  0  0  0
   -9.5964  -27.1994   26.3470 O   0  0  0  0  0  0  0  0  0  0  0  0
  -10.6026  -29.1686   25.0579 N   0  0  0  0  0  0  0  0  0  0  0  0
   -9.6457  -29.9939   24.2605 C   0  0  0  0  0  0  0  0  0  0  0  0
  -10.2567  -31.4316   24.2024 C   0  0  0  0  0  0  0  0  0  0  0  0
   -9.6853  -32.5772   23.3947 C   0  0  0  0  0  0  0  0  0  0  0  0
  -10.3281  -33.8247   23.5255 C   0  0  0  0  0  0  0  0  0  0  0  0
   -9.8235  -34.9852   22.9343 C   0  0  0  0  0  0  0  0  0  0  0  0
   -8.6571  -34.9062   22.1578 C   0  0  0  0  0  0  0  0  0  0  0  0
   -8.0116  -35.9816   21.5674 N   0  0  0  0  0  0  0  0  0  0  0  0
   -6.9552  -35.5436   20.9222 C   0  0  0  0  0  0  0  0  0  0  0  0
   -6.6985  -33.8528   20.9310 S   0  0  0  0  0  0  0  0  0  0  0  0
   -8.0701  -33.6534   21.9564 C   0  0  0  0  0  0  0  0  0  0  0  0
   -8.5713  -32.4747   22.5557 C   0  0  0  0  0  0  0  0  0  0  0  0
  -11.9146  -25.7502   27.1535 C   0  0  0  0  0  0  0  0  0  0  0  0
  -11.3126  -24.4434   24.7208 H   0  0  0  0  0  0  0  0  0  0  0  0
  -12.0369  -22.8325   24.4712 H   0  0  0  0  0  0  0  0  0  0  0  0
  -11.2646  -23.3123   26.0091 H   0  0  0  0  0  0  0  0  0  0  0  0
  -13.2452  -23.3800   26.6509 H   0  0  0  0  0  0  0  0  0  0  0  0
  -14.3957  -23.0046   24.3655 H   0  0  0  0  0  0  0  0  0  0  0  0
  -15.3313  -24.0288   25.4545 H   0  0  0  0  0  0  0  0  0  0  0  0
  -14.4040  -24.7651   24.1588 H   0  0  0  0  0  0  0  0  0  0  0  0
  -15.0250  -26.2441   26.4164 H   0  0  0  0  0  0  0  0  0  0  0  0
  -11.4635  -29.2047   24.5179 H   0  0  0  0  0  0  0  0  0  0  0  0
   -8.6842  -29.9775   24.7487 H   0  0  0  0  0  0  0  0  0  0  0  0
   -9.5425  -29.6363   23.2335 H   0  0  0  0  0  0  0  0  0  0  0  0
  -10.3528  -31.7441   25.2436 H   0  0  0  0  0  0  0  0  0  0  0  0
  -11.2955  -31.3821   23.8645 H   0  0  0  0  0  0  0  0  0  0  0  0
  -11.2190  -33.9120   24.1466 H   0  0  0  0  0  0  0  0  0  0  0  0
  -10.3059  -35.9446   23.0867 H   0  0  0  0  0  0  0  0  0  0  0  0
   -6.2840  -36.2076   20.3943 H   0  0  0  0  0  0  0  0  0  0  0  0
   -8.0505  -31.5319   22.4088 H   0  0  0  0  0  0  0  0  0  0  0  0
  -11.0589  -25.0971   27.2690 H   0  0  0  0  0  0  0  0  0  0  0  0
  1  2  1  0
  2  3  1  0
  2  4  1  0
  4  5  1  0
  5  6  2  0
  6  7  1  0
  7  8  1  0
  8  9  2  0
  8 10  2  0
  8 11  1  0
 11 12  1  0
 12 13  1  0
 13 14  1  0
 14 15  2  0
 15 16  1  0
 16 17  2  0
 17 18  1  0
 18 19  2  0
 19 20  1  0
 20 21  1  0
 21 22  2  0
  7 23  2  0
 23  4  1  0
 22 14  1  0
 21 17  1  0
  1 24  1  0
  1 25  1  0
  1 26  1  0
  2 27  1  0
  3 28  1  0
  3 29  1  0
  3 30  1  0
  5 31  1  0
 11 32  1  0
 12 33  1  0
 12 34  1  0
 13 35  1  0
 13 36  1  0
 15 37  1  0
 16 38  1  0
 19 39  1  0
 22 40  1  0
 23 41  1  0
M  END
>  <Energy>  (137) 
121.31275137331187

>  <compound_id>  (137) 
12552

>  <target_id>  (137) 
1

>  <reference_id>  (137) 
64

>  <inspiration_ids>  (137) 
[64, 68]

>  <energy_score>  (137) 
5.401263284554062

>  <distance_score>  (137) 
3.083607584028436

>  <path>  (137) 
/opt/xchem-fragalysis-2/maxwin/BulkDock/SCRATCH/511016/C12552-P64/C12552-P64.minimised.mol

>  <scratch_subdir>  (137) 
/opt/xchem-fragalysis-2/maxwin/BulkDock/SCRATCH/511016/C12552-P64

>  <fragmenstein_runtime>  (137) 
3.159820795059204

>  <fragmenstein_outcome>  (137) 
too moved

>  <fragmenstein_mode>  (137) 
expansion

>  <fragmenstein_error>  (137) 


$$$$
C12552-P68
     RDKit          3D

 41 43  0  0  0  0  0  0  0  0999 V2000
  -11.8387  -22.0168   23.9374 C   0  0  0  0  0  0  0  0  0  0  0  0
  -12.4247  -22.6022   25.2806 C   0  0  0  0  0  0  0  0  0  0  0  0
  -13.8578  -22.9429   24.8028 C   0  0  0  0  0  0  0  0  0  0  0  0
  -11.8491  -23.7257   26.1112 N   0  0  0  0  0  0  0  0  0  0  0  0
  -12.7562  -24.6851   26.4299 C   0  0  0  0  0  0  0  0  0  0  0  0
  -12.5345  -25.7877   25.8416 N   0  0  0  0  0  0  0  0  0  0  0  0
  -11.1476  -25.8333   25.9660 C   0  0  0  0  0  0  0  0  0  0  0  0
  -10.6685  -27.4538   25.8505 S   0  0  0  0  0  0  0  0  0  0  0  0
  -10.3818  -27.8786   27.2093 O   0  0  0  0  0  0  0  0  0  0  0  0
  -11.8985  -27.8564   25.2369 O   0  0  0  0  0  0  0  0  0  0  0  0
   -9.1600  -28.2138   24.7029 N   0  0  0  0  0  0  0  0  0  0  0  0
   -8.6846  -29.7232   23.3442 C   0  0  0  0  0  0  0  0  0  0  0  0
  -10.0463  -31.1149   22.7819 C   0  0  0  0  0  0  0  0  0  0  0  0
  -10.0775  -32.7059   22.8818 C   0  0  0  0  0  0  0  0  0  0  0  0
  -10.2240  -33.4161   24.0718 C   0  0  0  0  0  0  0  0  0  0  0  0
  -10.1582  -34.8140   24.1926 C   0  0  0  0  0  0  0  0  0  0  0  0
  -10.1009  -35.5880   23.0375 C   0  0  0  0  0  0  0  0  0  0  0  0
  -10.0179  -36.9668   22.9882 N   0  0  0  0  0  0  0  0  0  0  0  0
  -10.0878  -37.3558   21.7385 C   0  0  0  0  0  0  0  0  0  0  0  0
  -10.3224  -36.1227   20.5779 S   0  0  0  0  0  0  0  0  0  0  0  0
  -10.1999  -34.9250   21.8159 C   0  0  0  0  0  0  0  0  0  0  0  0
  -10.2151  -33.5030   21.7313 C   0  0  0  0  0  0  0  0  0  0  0  0
  -10.6788  -24.5301   26.1724 C   0  0  0  0  0  0  0  0  0  0  0  0
  -12.4580  -22.1982   23.0548 H   0  0  0  0  0  0  0  0  0  0  0  0
  -11.8088  -20.9234   24.0152 H   0  0  0  0  0  0  0  0  0  0  0  0
  -10.8451  -22.3596   23.6692 H   0  0  0  0  0  0  0  0  0  0  0  0
  -12.4189  -21.7931   26.0131 H   0  0  0  0  0  0  0  0  0  0  0  0
  -14.2486  -22.2161   24.0895 H   0  0  0  0  0  0  0  0  0  0  0  0
  -14.6158  -23.0004   25.5595 H   0  0  0  0  0  0  0  0  0  0  0  0
  -13.8565  -23.9305   24.3601 H   0  0  0  0  0  0  0  0  0  0  0  0
  -13.2453  -24.7065   27.3518 H   0  0  0  0  0  0  0  0  0  0  0  0
   -9.2487  -28.7279   25.6665 H   0  0  0  0  0  0  0  0  0  0  0  0
   -7.7923  -30.1358   23.7791 H   0  0  0  0  0  0  0  0  0  0  0  0
   -8.3651  -29.0662   22.5086 H   0  0  0  0  0  0  0  0  0  0  0  0
  -11.1269  -31.0126   22.8876 H   0  0  0  0  0  0  0  0  0  0  0  0
  -10.1555  -30.8858   21.6888 H   0  0  0  0  0  0  0  0  0  0  0  0
  -10.4809  -32.9208   24.9822 H   0  0  0  0  0  0  0  0  0  0  0  0
  -10.1943  -35.2909   25.1662 H   0  0  0  0  0  0  0  0  0  0  0  0
  -10.0317  -38.3989   21.4559 H   0  0  0  0  0  0  0  0  0  0  0  0
  -10.3622  -33.0444   20.7638 H   0  0  0  0  0  0  0  0  0  0  0  0
   -9.6983  -24.1747   26.4180 H   0  0  0  0  0  0  0  0  0  0  0  0
  1  2  1  0
  2  3  1  0
  2  4  1  0
  4  5  1  0
  5  6  2  0
  6  7  1  0
  7  8  1  0
  8  9  2  0
  8 10  2  0
  8 11  1  0
 11 12  1  0
 12 13  1  0
 13 14  1  0
 14 15  2  0
 15 16  1  0
 16 17  2  0
 17 18  1  0
 18 19  2  0
 19 20  1  0
 20 21  1  0
 21 22  2  0
  7 23  2  0
 23  4  1  0
 22 14  1  0
 21 17  1  0
  1 24  1  0
  1 25  1  0
  1 26  1  0
  2 27  1  0
  3 28  1  0
  3 29  1  0
  3 30  1  0
  5 31  1  0
 11 32  1  0
 12 33  1  0
 12 34  1  0
 13 35  1  0
 13 36  1  0
 15 37  1  0
 16 38  1  0
 19 39  1  0
 22 40  1  0
 23 41  1  0
M  END
>  <Energy>  (138) 
421.29341264854503

>  <compound_id>  (138) 
12552

>  <target_id>  (138) 
1

>  <reference_id>  (138) 
68

>  <inspiration_ids>  (138) 
[64, 68]

>  <energy_score>  (138) 
305.38192455979413

>  <distance_score>  (138) 
2.781052972466771

>  <path>  (138) 
/opt/xchem-fragalysis-2/maxwin/BulkDock/SCRATCH/511016/C12552-P68/C12552-P68.minimised.mol

>  <scratch_subdir>  (138) 
/opt/xchem-fragalysis-2/maxwin/BulkDock/SCRATCH/511016/C12552-P68

>  <fragmenstein_runtime>  (138) 
5.625170469284058

>  <fragmenstein_outcome>  (138) 
too moved

>  <fragmenstein_mode>  (138) 
expansion

>  <fragmenstein_error>  (138) 


$$$$
C12553-P64
     RDKit          3D

 35 37  0  0  0  0  0  0  0  0999 V2000
   -9.9898  -26.2748   28.4256 C   0  0  0  0  0  0  0  0  0  0  0  0
  -11.1110  -26.2029   27.4630 C   0  0  0  0  0  0  0  0  0  0  0  0
  -11.8813  -25.0643   27.4415 N   0  0  0  0  0  0  0  0  0  0  0  0
  -12.8566  -25.2199   26.5099 C   0  0  0  0  0  0  0  0  0  0  0  0
  -12.7736  -26.3795   25.9162 N   0  0  0  0  0  0  0  0  0  0  0  0
  -11.5945  -26.9738   26.3958 C   0  0  0  0  0  0  0  0  0  0  0  0
  -10.6264  -27.9942   25.2405 S   0  0  0  0  0  0  0  0  0  0  0  0
  -11.1809  -27.4518   24.0346 O   0  0  0  0  0  0  0  0  0  0  0  0
   -9.3195  -27.6939   25.7257 O   0  0  0  0  0  0  0  0  0  0  0  0
  -10.6471  -29.7886   25.0199 N   0  0  0  0  0  0  0  0  0  0  0  0
   -9.7613  -30.7277   24.1606 C   0  0  0  0  0  0  0  0  0  0  0  0
  -10.6278  -31.8699   23.4341 C   0  0  0  0  0  0  0  0  0  0  0  0
  -10.1107  -33.3091   23.3531 C   0  0  0  0  0  0  0  0  0  0  0  0
  -10.7727  -34.3349   24.0478 C   0  0  0  0  0  0  0  0  0  0  0  0
  -10.2568  -35.6408   24.1106 C   0  0  0  0  0  0  0  0  0  0  0  0
   -9.0828  -35.9646   23.4072 C   0  0  0  0  0  0  0  0  0  0  0  0
   -8.4246  -37.1869   23.4338 N   0  0  0  0  0  0  0  0  0  0  0  0
   -7.3928  -37.1402   22.6229 C   0  0  0  0  0  0  0  0  0  0  0  0
   -7.1459  -35.6671   21.7888 S   0  0  0  0  0  0  0  0  0  0  0  0
   -8.5001  -34.9778   22.6085 C   0  0  0  0  0  0  0  0  0  0  0  0
   -8.9947  -33.6503   22.5700 C   0  0  0  0  0  0  0  0  0  0  0  0
  -10.2714  -26.8819   29.2895 H   0  0  0  0  0  0  0  0  0  0  0  0
   -9.1019  -26.7054   27.9699 H   0  0  0  0  0  0  0  0  0  0  0  0
   -9.7137  -25.2811   28.7954 H   0  0  0  0  0  0  0  0  0  0  0  0
  -11.7548  -24.2528   28.0344 H   0  0  0  0  0  0  0  0  0  0  0  0
  -13.5897  -24.4561   26.2979 H   0  0  0  0  0  0  0  0  0  0  0  0
  -11.3853  -29.6561   24.3223 H   0  0  0  0  0  0  0  0  0  0  0  0
   -9.1125  -31.2157   24.8729 H   0  0  0  0  0  0  0  0  0  0  0  0
   -9.1871  -30.1569   23.4289 H   0  0  0  0  0  0  0  0  0  0  0  0
  -10.8032  -31.5538   22.3976 H   0  0  0  0  0  0  0  0  0  0  0  0
  -11.6170  -31.9043   23.9077 H   0  0  0  0  0  0  0  0  0  0  0  0
  -11.6748  -34.1139   24.6158 H   0  0  0  0  0  0  0  0  0  0  0  0
  -10.7478  -36.3991   24.7125 H   0  0  0  0  0  0  0  0  0  0  0  0
   -6.7353  -37.9868   22.4752 H   0  0  0  0  0  0  0  0  0  0  0  0
   -8.4752  -32.8958   21.9817 H   0  0  0  0  0  0  0  0  0  0  0  0
  1  2  1  0
  2  3  1  0
  3  4  1  0
  4  5  2  0
  5  6  1  0
  6  7  1  0
  7  8  2  0
  7  9  2  0
  7 10  1  0
 10 11  1  0
 11 12  1  0
 12 13  1  0
 13 14  2  0
 14 15  1  0
 15 16  2  0
 16 17  1  0
 17 18  2  0
 18 19  1  0
 19 20  1  0
 20 21  2  0
  6  2  2  0
 21 13  1  0
 20 16  1  0
  1 22  1  0
  1 23  1  0
  1 24  1  0
  3 25  1  0
  4 26  1  0
 10 27  1  0
 11 28  1  0
 11 29  1  0
 12 30  1  0
 12 31  1  0
 14 32  1  0
 15 33  1  0
 18 34  1  0
 21 35  1  0
M  END
>  <Energy>  (139) 
114.76259197597946

>  <compound_id>  (139) 
12553

>  <target_id>  (139) 
1

>  <reference_id>  (139) 
64

>  <inspiration_ids>  (139) 
[64, 68]

>  <energy_score>  (139) 
-6.2014156523342905

>  <distance_score>  (139) 
1.78774903475425

>  <path>  (139) 
/opt/xchem-fragalysis-2/maxwin/BulkDock/SCRATCH/511016/C12553-P64/C12553-P64.minimised.mol

>  <scratch_subdir>  (139) 
/opt/xchem-fragalysis-2/maxwin/BulkDock/SCRATCH/511016/C12553-P64

>  <fragmenstein_runtime>  (139) 
1.1821565628051758

>  <fragmenstein_outcome>  (139) 
too moved

>  <fragmenstein_mode>  (139) 
expansion

>  <fragmenstein_error>  (139) 


$$$$
C12553-P68
     RDKit          3D

 35 37  0  0  0  0  0  0  0  0999 V2000
  -10.0265  -28.7542   27.4246 C   0  0  0  0  0  0  0  0  0  0  0  0
  -10.2615  -28.1268   26.1222 C   0  0  0  0  0  0  0  0  0  0  0  0
  -11.3462  -27.2573   26.1119 N   0  0  0  0  0  0  0  0  0  0  0  0
  -10.6769  -26.1254   25.9473 C   0  0  0  0  0  0  0  0  0  0  0  0
   -9.6521  -26.5009   25.2185 N   0  0  0  0  0  0  0  0  0  0  0  0
   -9.5126  -27.9015   24.8860 C   0  0  0  0  0  0  0  0  0  0  0  0
   -8.2105  -29.0706   23.3387 S   0  0  0  0  0  0  0  0  0  0  0  0
   -8.5452  -28.7752   21.9875 O   0  0  0  0  0  0  0  0  0  0  0  0
   -6.8171  -29.0017   23.6662 O   0  0  0  0  0  0  0  0  0  0  0  0
   -9.4568  -30.9403   23.2998 N   0  0  0  0  0  0  0  0  0  0  0  0
  -10.3517  -31.8199   22.1542 C   0  0  0  0  0  0  0  0  0  0  0  0
  -11.1820  -32.9657   22.7606 C   0  0  0  0  0  0  0  0  0  0  0  0
  -10.3910  -34.1786   23.1908 C   0  0  0  0  0  0  0  0  0  0  0  0
  -10.2497  -34.4726   24.5464 C   0  0  0  0  0  0  0  0  0  0  0  0
   -9.4917  -35.5648   24.9786 C   0  0  0  0  0  0  0  0  0  0  0  0
   -8.8502  -36.3873   24.0369 C   0  0  0  0  0  0  0  0  0  0  0  0
   -8.0589  -37.4807   24.3284 N   0  0  0  0  0  0  0  0  0  0  0  0
   -7.5996  -38.0042   23.2169 C   0  0  0  0  0  0  0  0  0  0  0  0
   -8.1066  -37.2536   21.7633 S   0  0  0  0  0  0  0  0  0  0  0  0
   -9.0096  -36.1039   22.6803 C   0  0  0  0  0  0  0  0  0  0  0  0
   -9.7964  -35.0238   22.2377 C   0  0  0  0  0  0  0  0  0  0  0  0
  -10.7895  -28.3312   28.0697 H   0  0  0  0  0  0  0  0  0  0  0  0
   -9.0895  -28.5607   27.9156 H   0  0  0  0  0  0  0  0  0  0  0  0
  -10.0655  -29.8210   27.3907 H   0  0  0  0  0  0  0  0  0  0  0  0
  -12.1694  -27.3663   26.6927 H   0  0  0  0  0  0  0  0  0  0  0  0
  -10.9167  -25.1278   26.2962 H   0  0  0  0  0  0  0  0  0  0  0  0
   -9.7798  -30.1695   22.6449 H   0  0  0  0  0  0  0  0  0  0  0  0
  -11.0366  -31.1164   21.6641 H   0  0  0  0  0  0  0  0  0  0  0  0
   -9.7063  -32.2569   21.3903 H   0  0  0  0  0  0  0  0  0  0  0  0
  -11.8884  -33.3073   21.9910 H   0  0  0  0  0  0  0  0  0  0  0  0
  -11.8178  -32.6173   23.5771 H   0  0  0  0  0  0  0  0  0  0  0  0
  -10.7150  -33.8364   25.2922 H   0  0  0  0  0  0  0  0  0  0  0  0
   -9.3658  -35.7724   26.0360 H   0  0  0  0  0  0  0  0  0  0  0  0
   -6.9444  -38.8662   23.2216 H   0  0  0  0  0  0  0  0  0  0  0  0
   -9.9214  -34.8436   21.1752 H   0  0  0  0  0  0  0  0  0  0  0  0
  1  2  1  0
  2  3  1  0
  3  4  1  0
  4  5  2  0
  5  6  1  0
  6  7  1  0
  7  8  2  0
  7  9  2  0
  7 10  1  0
 10 11  1  0
 11 12  1  0
 12 13  1  0
 13 14  2  0
 14 15  1  0
 15 16  2  0
 16 17  1  0
 17 18  2  0
 18 19  1  0
 19 20  1  0
 20 21  2  0
  6  2  2  0
 21 13  1  0
 20 16  1  0
  1 22  1  0
  1 23  1  0
  1 24  1  0
  3 25  1  0
  4 26  1  0
 10 27  1  0
 11 28  1  0
 11 29  1  0
 12 30  1  0
 12 31  1  0
 14 32  1  0
 15 33  1  0
 18 34  1  0
 21 35  1  0
M  END
>  <Energy>  (140) 
362.43682744507885

>  <compound_id>  (140) 
12553

>  <target_id>  (140) 
1

>  <reference_id>  (140) 
68

>  <inspiration_ids>  (140) 
[64, 68]

>  <energy_score>  (140) 
-32.12414254947555

>  <distance_score>  (140) 
2.350320557310893

>  <path>  (140) 
/opt/xchem-fragalysis-2/maxwin/BulkDock/SCRATCH/511016/C12553-P68/C12553-P68.minimised.mol

>  <scratch_subdir>  (140) 
/opt/xchem-fragalysis-2/maxwin/BulkDock/SCRATCH/511016/C12553-P68

>  <fragmenstein_runtime>  (140) 
3.627182960510254

>  <fragmenstein_outcome>  (140) 
too moved

>  <fragmenstein_mode>  (140) 
expansion

>  <fragmenstein_error>  (140) 


$$$$
C12554-P64
     RDKit          3D

 35 37  0  0  0  0  0  0  0  0999 V2000
  -12.1788  -32.4982   22.3906 C   0  0  0  0  0  0  0  0  0  0  0  0
  -11.0875  -32.3641   23.4520 C   0  0  0  0  0  0  0  0  0  0  0  0
  -10.2976  -31.0768   23.2563 N   0  0  0  0  0  0  0  0  0  0  0  0
  -10.0532  -30.0239   24.6784 S   0  0  0  0  0  0  0  0  0  0  0  0
   -8.6508  -29.7374   24.6547 O   0  0  0  0  0  0  0  0  0  0  0  0
  -10.6756  -30.7827   25.7537 O   0  0  0  0  0  0  0  0  0  0  0  0
  -10.7185  -28.0849   25.0421 C   0  0  0  0  0  0  0  0  0  0  0  0
  -10.3249  -27.2523   26.1057 C   0  0  0  0  0  0  0  0  0  0  0  0
  -11.2341  -26.2456   26.2201 N   0  0  0  0  0  0  0  0  0  0  0  0
  -11.2270  -25.1941   27.2053 C   0  0  0  0  0  0  0  0  0  0  0  0
  -12.1024  -26.3921   25.1984 C   0  0  0  0  0  0  0  0  0  0  0  0
  -11.7411  -27.3707   24.3860 N   0  0  0  0  0  0  0  0  0  0  0  0
  -10.2953  -33.6811   23.4091 C   0  0  0  0  0  0  0  0  0  0  0  0
  -10.7416  -34.7593   24.1994 C   0  0  0  0  0  0  0  0  0  0  0  0
  -10.0503  -35.9764   24.2570 C   0  0  0  0  0  0  0  0  0  0  0  0
   -8.9095  -36.1636   23.4594 C   0  0  0  0  0  0  0  0  0  0  0  0
   -8.1121  -37.2992   23.4434 N   0  0  0  0  0  0  0  0  0  0  0  0
   -7.1633  -37.1449   22.5498 C   0  0  0  0  0  0  0  0  0  0  0  0
   -7.1537  -35.6644   21.6927 S   0  0  0  0  0  0  0  0  0  0  0  0
   -8.5212  -35.1310   22.6005 C   0  0  0  0  0  0  0  0  0  0  0  0
   -9.1916  -33.8846   22.5654 C   0  0  0  0  0  0  0  0  0  0  0  0
  -12.6848  -33.4697   22.4399 H   0  0  0  0  0  0  0  0  0  0  0  0
  -11.7667  -32.3899   21.3803 H   0  0  0  0  0  0  0  0  0  0  0  0
  -12.9576  -31.7466   22.5112 H   0  0  0  0  0  0  0  0  0  0  0  0
  -11.6115  -32.3258   24.4105 H   0  0  0  0  0  0  0  0  0  0  0  0
  -10.7453  -30.4454   22.5834 H   0  0  0  0  0  0  0  0  0  0  0  0
   -9.5018  -27.2743   26.8025 H   0  0  0  0  0  0  0  0  0  0  0  0
  -12.2333  -24.7787   27.2980 H   0  0  0  0  0  0  0  0  0  0  0  0
  -10.5319  -24.4198   26.8741 H   0  0  0  0  0  0  0  0  0  0  0  0
  -10.9028  -25.6077   28.1634 H   0  0  0  0  0  0  0  0  0  0  0  0
  -12.9657  -25.7530   25.0775 H   0  0  0  0  0  0  0  0  0  0  0  0
  -11.6217  -34.6431   24.8303 H   0  0  0  0  0  0  0  0  0  0  0  0
  -10.3834  -36.7720   24.9155 H   0  0  0  0  0  0  0  0  0  0  0  0
   -6.4254  -37.9113   22.3532 H   0  0  0  0  0  0  0  0  0  0  0  0
   -8.8281  -33.0830   21.9251 H   0  0  0  0  0  0  0  0  0  0  0  0
  1  2  1  0
  2  3  1  0
  3  4  1  0
  4  5  2  0
  4  6  2  0
  4  7  1  0
  7  8  2  0
  8  9  1  0
  9 10  1  0
  9 11  1  0
 11 12  2  0
  2 13  1  0
 13 14  2  0
 14 15  1  0
 15 16  2  0
 16 17  1  0
 17 18  2  0
 18 19  1  0
 19 20  1  0
 20 21  2  0
 12  7  1  0
 21 13  1  0
 20 16  1  0
  1 22  1  0
  1 23  1  0
  1 24  1  0
  2 25  1  0
  3 26  1  0
  8 27  1  0
 10 28  1  0
 10 29  1  0
 10 30  1  0
 11 31  1  0
 14 32  1  0
 15 33  1  0
 18 34  1  0
 21 35  1  0
M  END
>  <Energy>  (141) 
86.601678906940762

>  <compound_id>  (141) 
12554

>  <target_id>  (141) 
1

>  <reference_id>  (141) 
64

>  <inspiration_ids>  (141) 
[64, 68]

>  <energy_score>  (141) 
-6.521535904047681

>  <distance_score>  (141) 
2.1262557095060135

>  <path>  (141) 
/opt/xchem-fragalysis-2/maxwin/BulkDock/SCRATCH/511016/C12554-P64/C12554-P64.minimised.mol

>  <scratch_subdir>  (141) 
/opt/xchem-fragalysis-2/maxwin/BulkDock/SCRATCH/511016/C12554-P64

>  <fragmenstein_runtime>  (141) 
2.5822036266326904

>  <fragmenstein_outcome>  (141) 
too moved

>  <fragmenstein_mode>  (141) 
expansion

>  <fragmenstein_error>  (141) 


$$$$
C12554-P68
     RDKit          3D

 35 37  0  0  0  0  0  0  0  0999 V2000
  -17.8131  -31.1862   25.9900 C   0  0  0  0  0  0  0  0  0  0  0  0
  -16.9700  -30.6657   24.8364 C   0  0  0  0  0  0  0  0  0  0  0  0
  -16.2626  -29.4428   25.2777 N   0  0  0  0  0  0  0  0  0  0  0  0
  -16.7492  -27.7734   25.0597 S   0  0  0  0  0  0  0  0  0  0  0  0
  -16.9661  -27.4875   23.6586 O   0  0  0  0  0  0  0  0  0  0  0  0
  -17.7583  -27.4321   26.0299 O   0  0  0  0  0  0  0  0  0  0  0  0
  -15.2199  -26.8549   25.4824 C   0  0  0  0  0  0  0  0  0  0  0  0
  -14.0370  -27.0123   24.8556 C   0  0  0  0  0  0  0  0  0  0  0  0
  -12.9918  -26.7747   25.7291 N   0  0  0  0  0  0  0  0  0  0  0  0
  -11.5615  -26.9587   25.8708 C   0  0  0  0  0  0  0  0  0  0  0  0
  -13.5499  -25.7946   26.3794 C   0  0  0  0  0  0  0  0  0  0  0  0
  -14.8041  -26.1946   26.5926 N   0  0  0  0  0  0  0  0  0  0  0  0
  -16.0356  -31.8297   24.3720 C   0  0  0  0  0  0  0  0  0  0  0  0
  -16.3065  -32.4670   23.1497 C   0  0  0  0  0  0  0  0  0  0  0  0
  -15.4587  -33.4550   22.6102 C   0  0  0  0  0  0  0  0  0  0  0  0
  -14.2847  -33.8312   23.2840 C   0  0  0  0  0  0  0  0  0  0  0  0
  -13.3320  -34.7352   22.8300 N   0  0  0  0  0  0  0  0  0  0  0  0
  -12.3536  -34.8185   23.6988 C   0  0  0  0  0  0  0  0  0  0  0  0
  -12.5174  -33.8417   25.0882 S   0  0  0  0  0  0  0  0  0  0  0  0
  -14.0316  -33.2427   24.5232 C   0  0  0  0  0  0  0  0  0  0  0  0
  -14.9158  -32.2882   25.1070 C   0  0  0  0  0  0  0  0  0  0  0  0
  -18.3742  -32.0819   25.7005 H   0  0  0  0  0  0  0  0  0  0  0  0
  -18.5390  -30.4303   26.3086 H   0  0  0  0  0  0  0  0  0  0  0  0
  -17.2026  -31.4437   26.8631 H   0  0  0  0  0  0  0  0  0  0  0  0
  -17.6282  -30.3897   24.0040 H   0  0  0  0  0  0  0  0  0  0  0  0
  -15.3865  -29.5631   25.7725 H   0  0  0  0  0  0  0  0  0  0  0  0
  -13.9767  -27.3245   23.8569 H   0  0  0  0  0  0  0  0  0  0  0  0
  -11.1212  -27.4790   25.0459 H   0  0  0  0  0  0  0  0  0  0  0  0
  -11.3314  -27.5358   26.7633 H   0  0  0  0  0  0  0  0  0  0  0  0
  -11.0693  -25.9860   25.9618 H   0  0  0  0  0  0  0  0  0  0  0  0
  -13.0240  -24.9338   26.7771 H   0  0  0  0  0  0  0  0  0  0  0  0
  -17.1799  -32.1754   22.5651 H   0  0  0  0  0  0  0  0  0  0  0  0
  -15.6878  -33.9060   21.6484 H   0  0  0  0  0  0  0  0  0  0  0  0
  -11.4970  -35.4629   23.5464 H   0  0  0  0  0  0  0  0  0  0  0  0
  -14.6768  -31.8640   26.0789 H   0  0  0  0  0  0  0  0  0  0  0  0
  1  2  1  0
  2  3  1  0
  3  4  1  0
  4  5  2  0
  4  6  2  0
  4  7  1  0
  7  8  2  0
  8  9  1  0
  9 10  1  0
  9 11  1  0
 11 12  2  0
  2 13  1  0
 13 14  2  0
 14 15  1  0
 15 16  2  0
 16 17  1  0
 17 18  2  0
 18 19  1  0
 19 20  1  0
 20 21  2  0
 12  7  1  0
 21 13  1  0
 20 16  1  0
  1 22  1  0
  1 23  1  0
  1 24  1  0
  2 25  1  0
  3 26  1  0
  8 27  1  0
 10 28  1  0
 10 29  1  0
 10 30  1  0
 11 31  1  0
 14 32  1  0
 15 33  1  0
 18 34  1  0
 21 35  1  0
M  END
>  <Energy>  (142) 
87.39258971788685

>  <compound_id>  (142) 
12554

>  <target_id>  (142) 
1

>  <reference_id>  (142) 
68

>  <inspiration_ids>  (142) 
[64, 68]

>  <energy_score>  (142) 
-9.149565263495106

>  <distance_score>  (142) 
5.9335587095074445

>  <path>  (142) 
/opt/xchem-fragalysis-2/maxwin/BulkDock/SCRATCH/511016/C12554-P68/C12554-P68.minimised.mol

>  <scratch_subdir>  (142) 
/opt/xchem-fragalysis-2/maxwin/BulkDock/SCRATCH/511016/C12554-P68

>  <fragmenstein_runtime>  (142) 
5.932296991348267

>  <fragmenstein_outcome>  (142) 
too moved

>  <fragmenstein_mode>  (142) 
expansion

>  <fragmenstein_error>  (142) 


$$$$
C12555-P64
     RDKit          3D

 30 32  0  0  0  0  0  0  0  0999 V2000
   -8.9974  -30.0907   22.9232 O   0  0  0  0  0  0  0  0  0  0  0  0
   -9.6528  -30.4264   23.8092 C   0  0  0  0  0  0  0  0  0  0  0  0
  -10.3296  -29.5687   24.9713 N   0  0  0  0  0  0  0  0  0  0  0  0
  -10.3823  -28.0891   25.1743 C   0  0  0  0  0  0  0  0  0  0  0  0
  -11.1545  -27.1785   26.1488 C   0  0  0  0  0  0  0  0  0  0  0  0
  -12.1841  -26.3969   25.8367 N   0  0  0  0  0  0  0  0  0  0  0  0
  -12.1797  -25.3566   26.7355 C   0  0  0  0  0  0  0  0  0  0  0  0
  -11.1709  -25.5114   27.6476 C   0  0  0  0  0  0  0  0  0  0  0  0
  -10.5572  -26.6804   27.3002 N   0  0  0  0  0  0  0  0  0  0  0  0
  -10.2301  -31.8551   24.1691 N   0  0  0  0  0  0  0  0  0  0  0  0
  -10.0171  -33.1125   23.5510 C   0  0  0  0  0  0  0  0  0  0  0  0
  -10.7647  -34.1945   24.0435 C   0  0  0  0  0  0  0  0  0  0  0  0
  -10.3416  -35.5208   23.8706 C   0  0  0  0  0  0  0  0  0  0  0  0
   -9.1710  -35.7812   23.1394 C   0  0  0  0  0  0  0  0  0  0  0  0
   -8.5509  -37.0167   23.0157 N   0  0  0  0  0  0  0  0  0  0  0  0
   -7.4977  -36.8950   22.2414 C   0  0  0  0  0  0  0  0  0  0  0  0
   -7.1993  -35.3355   21.6042 S   0  0  0  0  0  0  0  0  0  0  0  0
   -8.5444  -34.7110   22.4927 C   0  0  0  0  0  0  0  0  0  0  0  0
   -8.9730  -33.3647   22.6568 C   0  0  0  0  0  0  0  0  0  0  0  0
  -10.7632  -30.1736   25.6243 H   0  0  0  0  0  0  0  0  0  0  0  0
   -9.3626  -27.8377   25.4209 H   0  0  0  0  0  0  0  0  0  0  0  0
  -10.7461  -27.7580   24.2394 H   0  0  0  0  0  0  0  0  0  0  0  0
  -12.8925  -24.5451   26.6625 H   0  0  0  0  0  0  0  0  0  0  0  0
  -10.8389  -24.9061   28.4805 H   0  0  0  0  0  0  0  0  0  0  0  0
   -9.6822  -27.0013   27.6922 H   0  0  0  0  0  0  0  0  0  0  0  0
  -10.8293  -31.7854   24.9646 H   0  0  0  0  0  0  0  0  0  0  0  0
  -11.6310  -34.0182   24.6760 H   0  0  0  0  0  0  0  0  0  0  0  0
  -10.8740  -36.3396   24.3438 H   0  0  0  0  0  0  0  0  0  0  0  0
   -6.8577  -37.7329   21.9982 H   0  0  0  0  0  0  0  0  0  0  0  0
   -8.3838  -32.5526   22.2346 H   0  0  0  0  0  0  0  0  0  0  0  0
  1  2  2  0
  2  3  1  0
  3  4  1  0
  4  5  1  0
  5  6  2  0
  6  7  1  0
  7  8  2  0
  8  9  1  0
  2 10  1  0
 10 11  1  0
 11 12  2  0
 12 13  1  0
 13 14  2  0
 14 15  1  0
 15 16  2  0
 16 17  1  0
 17 18  1  0
 18 19  2  0
  9  5  1  0
 19 11  1  0
 18 14  1  0
  3 20  1  0
  4 21  1  0
  4 22  1  0
  7 23  1  0
  8 24  1  0
  9 25  1  0
 10 26  1  0
 12 27  1  0
 13 28  1  0
 16 29  1  0
 19 30  1  0
M  END
>  <Energy>  (143) 
6.2791349876889484

>  <compound_id>  (143) 
12555

>  <target_id>  (143) 
1

>  <reference_id>  (143) 
64

>  <inspiration_ids>  (143) 
[64, 68]

>  <energy_score>  (143) 
1.561379864641296

>  <distance_score>  (143) 
1.9138865825058513

>  <path>  (143) 
/opt/xchem-fragalysis-2/maxwin/BulkDock/SCRATCH/511016/C12555-P64/C12555-P64.minimised.mol

>  <scratch_subdir>  (143) 
/opt/xchem-fragalysis-2/maxwin/BulkDock/SCRATCH/511016/C12555-P64

>  <fragmenstein_runtime>  (143) 
1.454789400100708

>  <fragmenstein_outcome>  (143) 
too moved

>  <fragmenstein_mode>  (143) 
expansion

>  <fragmenstein_error>  (143) 


$$$$
C12555-P68
     RDKit          3D

 30 32  0  0  0  0  0  0  0  0999 V2000
  -11.7005  -31.7934   26.2684 O   0  0  0  0  0  0  0  0  0  0  0  0
  -12.7923  -31.4266   26.2027 C   0  0  0  0  0  0  0  0  0  0  0  0
  -13.3121  -30.0156   26.0832 N   0  0  0  0  0  0  0  0  0  0  0  0
  -12.3673  -28.2885   25.8550 C   0  0  0  0  0  0  0  0  0  0  0  0
  -13.3994  -27.0852   25.8249 C   0  0  0  0  0  0  0  0  0  0  0  0
  -14.6380  -27.1346   25.3779 N   0  0  0  0  0  0  0  0  0  0  0  0
  -14.9689  -25.8545   25.0850 C   0  0  0  0  0  0  0  0  0  0  0  0
  -13.9233  -25.0152   25.3839 C   0  0  0  0  0  0  0  0  0  0  0  0
  -13.0131  -25.7911   26.0502 N   0  0  0  0  0  0  0  0  0  0  0  0
  -14.0376  -32.2324   26.1042 N   0  0  0  0  0  0  0  0  0  0  0  0
  -14.2227  -33.6102   25.9679 C   0  0  0  0  0  0  0  0  0  0  0  0
  -15.3521  -34.3333   26.2680 C   0  0  0  0  0  0  0  0  0  0  0  0
  -15.3402  -35.7363   26.0693 C   0  0  0  0  0  0  0  0  0  0  0  0
  -14.2133  -36.4119   25.5258 C   0  0  0  0  0  0  0  0  0  0  0  0
  -14.0637  -37.7734   25.3071 N   0  0  0  0  0  0  0  0  0  0  0  0
  -12.8848  -38.0150   24.7725 C   0  0  0  0  0  0  0  0  0  0  0  0
  -11.8868  -36.6552   24.4883 S   0  0  0  0  0  0  0  0  0  0  0  0
  -13.1125  -35.6492   25.1611 C   0  0  0  0  0  0  0  0  0  0  0  0
  -13.1103  -34.2686   25.3720 C   0  0  0  0  0  0  0  0  0  0  0  0
  -14.3185  -30.0267   26.1333 H   0  0  0  0  0  0  0  0  0  0  0  0
  -11.5427  -28.1191   26.6106 H   0  0  0  0  0  0  0  0  0  0  0  0
  -11.8266  -28.0683   24.9751 H   0  0  0  0  0  0  0  0  0  0  0  0
  -15.9386  -25.6007   24.6749 H   0  0  0  0  0  0  0  0  0  0  0  0
  -13.7998  -23.9427   25.2799 H   0  0  0  0  0  0  0  0  0  0  0  0
  -12.1611  -25.4658   26.5058 H   0  0  0  0  0  0  0  0  0  0  0  0
  -14.8297  -31.6184   26.1484 H   0  0  0  0  0  0  0  0  0  0  0  0
  -16.2312  -33.8610   26.6942 H   0  0  0  0  0  0  0  0  0  0  0  0
  -16.2124  -36.3259   26.3413 H   0  0  0  0  0  0  0  0  0  0  0  0
  -12.5609  -39.0167   24.5206 H   0  0  0  0  0  0  0  0  0  0  0  0
  -12.2277  -33.7153   25.0617 H   0  0  0  0  0  0  0  0  0  0  0  0
  1  2  2  0
  2  3  1  0
  3  4  1  0
  4  5  1  0
  5  6  2  0
  6  7  1  0
  7  8  2  0
  8  9  1  0
  2 10  1  0
 10 11  1  0
 11 12  2  0
 12 13  1  0
 13 14  2  0
 14 15  1  0
 15 16  2  0
 16 17  1  0
 17 18  1  0
 18 19  2  0
  9  5  1  0
 19 11  1  0
 18 14  1  0
  3 20  1  0
  4 21  1  0
  4 22  1  0
  7 23  1  0
  8 24  1  0
  9 25  1  0
 10 26  1  0
 12 27  1  0
 13 28  1  0
 16 29  1  0
 19 30  1  0
M  END
>  <Energy>  (144) 
49.717645726208275

>  <compound_id>  (144) 
12555

>  <target_id>  (144) 
1

>  <reference_id>  (144) 
68

>  <inspiration_ids>  (144) 
[64, 68]

>  <energy_score>  (144) 
14.896155041984457

>  <distance_score>  (144) 
5.049680983707581

>  <path>  (144) 
/opt/xchem-fragalysis-2/maxwin/BulkDock/SCRATCH/511016/C12555-P68/C12555-P68.minimised.mol

>  <scratch_subdir>  (144) 
/opt/xchem-fragalysis-2/maxwin/BulkDock/SCRATCH/511016/C12555-P68

>  <fragmenstein_runtime>  (144) 
8.840671300888062

>  <fragmenstein_outcome>  (144) 
too moved

>  <fragmenstein_mode>  (144) 
expansion

>  <fragmenstein_error>  (144) 


$$$$
C12556-P64
     RDKit          3D

 35 37  0  0  0  0  0  0  0  0999 V2000
  -11.9746  -32.1297   24.5920 O   0  0  0  0  0  0  0  0  0  0  0  0
  -11.1227  -32.1088   23.4159 S   0  0  0  0  0  0  0  0  0  0  0  0
  -11.7104  -32.1176   22.0892 O   0  0  0  0  0  0  0  0  0  0  0  0
   -9.9872  -30.7751   23.6056 N   0  0  0  0  0  0  0  0  0  0  0  0
  -10.1022  -29.7652   24.8923 C   0  0  0  0  0  0  0  0  0  0  0  0
  -10.7743  -28.1493   24.9638 C   0  0  0  0  0  0  0  0  0  0  0  0
  -11.0484  -27.2138   26.2348 C   0  0  0  0  0  0  0  0  0  0  0  0
  -10.1574  -26.9363   27.1757 N   0  0  0  0  0  0  0  0  0  0  0  0
  -10.5291  -25.7876   27.8149 C   0  0  0  0  0  0  0  0  0  0  0  0
  -11.6643  -25.2935   27.2429 C   0  0  0  0  0  0  0  0  0  0  0  0
  -12.0518  -26.2479   26.3278 N   0  0  0  0  0  0  0  0  0  0  0  0
  -13.3751  -26.2722   25.7429 C   0  0  0  0  0  0  0  0  0  0  0  0
  -14.0194  -25.0819   25.8837 F   0  0  0  0  0  0  0  0  0  0  0  0
  -13.3582  -26.5293   24.4148 F   0  0  0  0  0  0  0  0  0  0  0  0
  -10.2096  -33.6611   23.4294 C   0  0  0  0  0  0  0  0  0  0  0  0
  -10.6909  -34.7115   24.2229 C   0  0  0  0  0  0  0  0  0  0  0  0
  -10.0142  -35.9356   24.2818 C   0  0  0  0  0  0  0  0  0  0  0  0
   -8.8778  -36.1411   23.4784 C   0  0  0  0  0  0  0  0  0  0  0  0
   -8.0937  -37.2837   23.4694 N   0  0  0  0  0  0  0  0  0  0  0  0
   -7.1591  -37.1600   22.5559 C   0  0  0  0  0  0  0  0  0  0  0  0
   -7.1389  -35.6898   21.6810 S   0  0  0  0  0  0  0  0  0  0  0  0
   -8.4822  -35.1217   22.6043 C   0  0  0  0  0  0  0  0  0  0  0  0
   -9.1298  -33.8645   22.5619 C   0  0  0  0  0  0  0  0  0  0  0  0
   -9.0164  -31.1043   23.5646 H   0  0  0  0  0  0  0  0  0  0  0  0
  -10.4879  -30.4152   25.6796 H   0  0  0  0  0  0  0  0  0  0  0  0
   -9.0383  -29.6111   25.0929 H   0  0  0  0  0  0  0  0  0  0  0  0
  -10.0351  -27.4715   24.6188 H   0  0  0  0  0  0  0  0  0  0  0  0
  -11.5755  -27.9450   24.2771 H   0  0  0  0  0  0  0  0  0  0  0  0
   -9.9427  -25.3680   28.6224 H   0  0  0  0  0  0  0  0  0  0  0  0
  -12.2464  -24.4025   27.4411 H   0  0  0  0  0  0  0  0  0  0  0  0
  -13.9635  -27.0312   26.2640 H   0  0  0  0  0  0  0  0  0  0  0  0
  -11.5829  -34.5804   24.8331 H   0  0  0  0  0  0  0  0  0  0  0  0
  -10.3601  -36.7291   24.9375 H   0  0  0  0  0  0  0  0  0  0  0  0
   -6.4387  -37.9427   22.3564 H   0  0  0  0  0  0  0  0  0  0  0  0
   -8.7930  -33.0872   21.8801 H   0  0  0  0  0  0  0  0  0  0  0  0
  1  2  2  0
  2  3  2  0
  2  4  1  0
  4  5  1  0
  5  6  1  0
  6  7  1  0
  7  8  2  0
  8  9  1  0
  9 10  2  0
 10 11  1  0
 11 12  1  0
 12 13  1  0
 12 14  1  0
  2 15  1  0
 15 16  2  0
 16 17  1  0
 17 18  2  0
 18 19  1  0
 19 20  2  0
 20 21  1  0
 21 22  1  0
 22 23  2  0
 11  7  1  0
 23 15  1  0
 22 18  1  0
  4 24  1  0
  5 25  1  0
  5 26  1  0
  6 27  1  0
  6 28  1  0
  9 29  1  0
 10 30  1  0
 12 31  1  0
 16 32  1  0
 17 33  1  0
 20 34  1  0
 23 35  1  0
M  END
>  <Energy>  (145) 
59.431494580686831

>  <compound_id>  (145) 
12556

>  <target_id>  (145) 
1

>  <reference_id>  (145) 
64

>  <inspiration_ids>  (145) 
[64, 68]

>  <energy_score>  (145) 
-10.120953915241984

>  <distance_score>  (145) 
1.3126626882189605

>  <path>  (145) 
/opt/xchem-fragalysis-2/maxwin/BulkDock/SCRATCH/511016/C12556-P64/C12556-P64.minimised.mol

>  <scratch_subdir>  (145) 
/opt/xchem-fragalysis-2/maxwin/BulkDock/SCRATCH/511016/C12556-P64

>  <fragmenstein_runtime>  (145) 
2.3039631843566895

>  <fragmenstein_outcome>  (145) 
too moved

>  <fragmenstein_mode>  (145) 
expansion

>  <fragmenstein_error>  (145) 


$$$$
C12556-P68
     RDKit          3D

 35 37  0  0  0  0  0  0  0  0999 V2000
  -13.5731  -35.0739   22.4664 O   0  0  0  0  0  0  0  0  0  0  0  0
  -12.2754  -34.4551   22.3297 S   0  0  0  0  0  0  0  0  0  0  0  0
  -11.8022  -33.9165   21.0773 O   0  0  0  0  0  0  0  0  0  0  0  0
  -12.1695  -33.2068   23.4618 N   0  0  0  0  0  0  0  0  0  0  0  0
  -12.8763  -33.3992   24.7536 C   0  0  0  0  0  0  0  0  0  0  0  0
  -14.3762  -33.1123   24.6139 C   0  0  0  0  0  0  0  0  0  0  0  0
  -14.9530  -32.5168   25.8602 C   0  0  0  0  0  0  0  0  0  0  0  0
  -14.3337  -32.3896   27.0158 N   0  0  0  0  0  0  0  0  0  0  0  0
  -15.2908  -32.0257   27.9222 C   0  0  0  0  0  0  0  0  0  0  0  0
  -16.4917  -31.8205   27.2941 C   0  0  0  0  0  0  0  0  0  0  0  0
  -16.2595  -32.0995   25.9735 N   0  0  0  0  0  0  0  0  0  0  0  0
  -17.2522  -32.0958   24.9140 C   0  0  0  0  0  0  0  0  0  0  0  0
  -18.4293  -31.5647   25.3368 F   0  0  0  0  0  0  0  0  0  0  0  0
  -16.8361  -31.3306   23.8731 F   0  0  0  0  0  0  0  0  0  0  0  0
  -11.0367  -35.5777   22.9330 C   0  0  0  0  0  0  0  0  0  0  0  0
  -11.3966  -36.6000   23.8081 C   0  0  0  0  0  0  0  0  0  0  0  0
  -10.4211  -37.4826   24.2789 C   0  0  0  0  0  0  0  0  0  0  0  0
   -9.0849  -37.3509   23.8483 C   0  0  0  0  0  0  0  0  0  0  0  0
   -8.0388  -38.1654   24.2235 N   0  0  0  0  0  0  0  0  0  0  0  0
   -6.9330  -37.7648   23.6412 C   0  0  0  0  0  0  0  0  0  0  0  0
   -7.0718  -36.4160   22.5988 S   0  0  0  0  0  0  0  0  0  0  0  0
   -8.7564  -36.3273   22.9566 C   0  0  0  0  0  0  0  0  0  0  0  0
   -9.7186  -35.4237   22.4822 C   0  0  0  0  0  0  0  0  0  0  0  0
  -11.1893  -32.9431   23.5836 H   0  0  0  0  0  0  0  0  0  0  0  0
  -12.6980  -34.3984   25.1617 H   0  0  0  0  0  0  0  0  0  0  0  0
  -12.4104  -32.7063   25.4592 H   0  0  0  0  0  0  0  0  0  0  0  0
  -14.5686  -32.4483   23.7654 H   0  0  0  0  0  0  0  0  0  0  0  0
  -14.9054  -34.0494   24.4050 H   0  0  0  0  0  0  0  0  0  0  0  0
  -15.0720  -31.9435   28.9793 H   0  0  0  0  0  0  0  0  0  0  0  0
  -17.4667  -31.5315   27.6644 H   0  0  0  0  0  0  0  0  0  0  0  0
  -17.4182  -33.1230   24.5770 H   0  0  0  0  0  0  0  0  0  0  0  0
  -12.4289  -36.7300   24.1255 H   0  0  0  0  0  0  0  0  0  0  0  0
  -10.6770  -38.2881   24.9618 H   0  0  0  0  0  0  0  0  0  0  0  0
   -5.9857  -38.2557   23.8189 H   0  0  0  0  0  0  0  0  0  0  0  0
   -9.4473  -34.6417   21.7813 H   0  0  0  0  0  0  0  0  0  0  0  0
  1  2  2  0
  2  3  2  0
  2  4  1  0
  4  5  1  0
  5  6  1  0
  6  7  1  0
  7  8  2  0
  8  9  1  0
  9 10  2  0
 10 11  1  0
 11 12  1  0
 12 13  1  0
 12 14  1  0
  2 15  1  0
 15 16  2  0
 16 17  1  0
 17 18  2  0
 18 19  1  0
 19 20  2  0
 20 21  1  0
 21 22  1  0
 22 23  2  0
 11  7  1  0
 23 15  1  0
 22 18  1  0
  4 24  1  0
  5 25  1  0
  5 26  1  0
  6 27  1  0
  6 28  1  0
  9 29  1  0
 10 30  1  0
 12 31  1  0
 16 32  1  0
 17 33  1  0
 20 34  1  0
 23 35  1  0
M  END
>  <Energy>  (146) 
-12.13214909510447

>  <compound_id>  (146) 
12556

>  <target_id>  (146) 
1

>  <reference_id>  (146) 
68

>  <inspiration_ids>  (146) 
[64, 68]

>  <energy_score>  (146) 
-262.6081357502217

>  <distance_score>  (146) 
4.731452765755874

>  <path>  (146) 
/opt/xchem-fragalysis-2/maxwin/BulkDock/SCRATCH/511016/C12556-P68/C12556-P68.minimised.mol

>  <scratch_subdir>  (146) 
/opt/xchem-fragalysis-2/maxwin/BulkDock/SCRATCH/511016/C12556-P68

>  <fragmenstein_runtime>  (146) 
9.147488594055176

>  <fragmenstein_outcome>  (146) 
too moved

>  <fragmenstein_mode>  (146) 
expansion

>  <fragmenstein_error>  (146) 


$$$$
C12557-P64
     RDKit          3D

 30 32  0  0  0  0  0  0  0  0999 V2000
  -10.7724  -30.6656   25.7814 O   0  0  0  0  0  0  0  0  0  0  0  0
  -10.2193  -30.0444   24.8626 C   0  0  0  0  0  0  0  0  0  0  0  0
  -10.1500  -28.6411   24.8211 O   0  0  0  0  0  0  0  0  0  0  0  0
  -11.1286  -27.7652   25.5505 C   0  0  0  0  0  0  0  0  0  0  0  0
  -10.9429  -26.3095   25.8932 C   0  0  0  0  0  0  0  0  0  0  0  0
  -11.4188  -25.3374   25.1320 N   0  0  0  0  0  0  0  0  0  0  0  0
  -11.5954  -24.2395   25.9242 C   0  0  0  0  0  0  0  0  0  0  0  0
  -11.1418  -24.4905   27.1864 C   0  0  0  0  0  0  0  0  0  0  0  0
  -10.7068  -25.7900   27.1572 N   0  0  0  0  0  0  0  0  0  0  0  0
  -10.1790  -26.4760   28.3107 C   0  0  0  0  0  0  0  0  0  0  0  0
  -11.0875  -27.3723   28.7659 F   0  0  0  0  0  0  0  0  0  0  0  0
   -9.9261  -25.6187   29.3343 F   0  0  0  0  0  0  0  0  0  0  0  0
   -9.7604  -30.9845   23.7743 C   0  0  0  0  0  0  0  0  0  0  0  0
  -10.5152  -32.1800   23.6616 C   0  0  0  0  0  0  0  0  0  0  0  0
  -10.0941  -33.2810   22.9081 C   0  0  0  0  0  0  0  0  0  0  0  0
   -8.8608  -33.2105   22.2495 C   0  0  0  0  0  0  0  0  0  0  0  0
   -8.2479  -34.2621   21.5857 N   0  0  0  0  0  0  0  0  0  0  0  0
   -7.0915  -33.8503   21.1187 C   0  0  0  0  0  0  0  0  0  0  0  0
   -6.6810  -32.2162   21.4136 S   0  0  0  0  0  0  0  0  0  0  0  0
   -8.1534  -32.0051   22.2897 C   0  0  0  0  0  0  0  0  0  0  0  0
   -8.6083  -30.8656   23.0062 C   0  0  0  0  0  0  0  0  0  0  0  0
  -11.9208  -27.6377   24.8110 H   0  0  0  0  0  0  0  0  0  0  0  0
  -11.4596  -28.2072   26.4888 H   0  0  0  0  0  0  0  0  0  0  0  0
  -12.0363  -23.3277   25.5418 H   0  0  0  0  0  0  0  0  0  0  0  0
  -11.1011  -23.8786   28.0791 H   0  0  0  0  0  0  0  0  0  0  0  0
   -9.2455  -26.9560   28.0278 H   0  0  0  0  0  0  0  0  0  0  0  0
  -11.4413  -32.2888   24.2237 H   0  0  0  0  0  0  0  0  0  0  0  0
  -10.6727  -34.1973   22.8829 H   0  0  0  0  0  0  0  0  0  0  0  0
   -6.4247  -34.4996   20.5684 H   0  0  0  0  0  0  0  0  0  0  0  0
   -7.9667  -30.0027   23.0800 H   0  0  0  0  0  0  0  0  0  0  0  0
  1  2  2  0
  2  3  1  0
  3  4  1  0
  4  5  1  0
  5  6  2  0
  6  7  1  0
  7  8  2  0
  8  9  1  0
  9 10  1  0
 10 11  1  0
 10 12  1  0
  2 13  1  0
 13 14  2  0
 14 15  1  0
 15 16  2  0
 16 17  1  0
 17 18  2  0
 18 19  1  0
 19 20  1  0
 20 21  2  0
  9  5  1  0
 21 13  1  0
 20 16  1  0
  4 22  1  0
  4 23  1  0
  7 24  1  0
  8 25  1  0
 10 26  1  0
 14 27  1  0
 15 28  1  0
 18 29  1  0
 21 30  1  0
M  END
>  <Energy>  (147) 
89.339054886498204

>  <compound_id>  (147) 
12557

>  <target_id>  (147) 
1

>  <reference_id>  (147) 
64

>  <inspiration_ids>  (147) 
[64, 68]

>  <energy_score>  (147) 
-16.213038569800574

>  <distance_score>  (147) 
3.5749331229893255

>  <path>  (147) 
/opt/xchem-fragalysis-2/maxwin/BulkDock/SCRATCH/511016/C12557-P64/C12557-P64.minimised.mol

>  <scratch_subdir>  (147) 
/opt/xchem-fragalysis-2/maxwin/BulkDock/SCRATCH/511016/C12557-P64

>  <fragmenstein_runtime>  (147) 
2.1296744346618652

>  <fragmenstein_outcome>  (147) 
too moved

>  <fragmenstein_mode>  (147) 
expansion

>  <fragmenstein_error>  (147) 


$$$$
C12557-P68
     RDKit          3D

 30 32  0  0  0  0  0  0  0  0999 V2000
  -16.2359  -31.9502   26.0281 O   0  0  0  0  0  0  0  0  0  0  0  0
  -15.0874  -31.6697   25.7052 C   0  0  0  0  0  0  0  0  0  0  0  0
  -14.5568  -30.4289   26.0114 O   0  0  0  0  0  0  0  0  0  0  0  0
  -13.0692  -30.1132   26.0974 C   0  0  0  0  0  0  0  0  0  0  0  0
  -12.4474  -28.2228   25.7339 C   0  0  0  0  0  0  0  0  0  0  0  0
  -13.3058  -27.1963   25.4964 N   0  0  0  0  0  0  0  0  0  0  0  0
  -12.6847  -26.0479   25.9047 C   0  0  0  0  0  0  0  0  0  0  0  0
  -11.3362  -26.2829   26.0513 C   0  0  0  0  0  0  0  0  0  0  0  0
  -11.2542  -27.6327   26.2503 N   0  0  0  0  0  0  0  0  0  0  0  0
  -10.5768  -28.1570   27.4122 C   0  0  0  0  0  0  0  0  0  0  0  0
  -10.2100  -27.1993   28.2675 F   0  0  0  0  0  0  0  0  0  0  0  0
   -9.5442  -28.9784   27.2174 F   0  0  0  0  0  0  0  0  0  0  0  0
  -14.3285  -32.6746   24.8700 C   0  0  0  0  0  0  0  0  0  0  0  0
  -14.7934  -32.9846   23.5921 C   0  0  0  0  0  0  0  0  0  0  0  0
  -14.0527  -33.8183   22.7285 C   0  0  0  0  0  0  0  0  0  0  0  0
  -12.8155  -34.3593   23.1367 C   0  0  0  0  0  0  0  0  0  0  0  0
  -11.9658  -35.1477   22.3765 N   0  0  0  0  0  0  0  0  0  0  0  0
  -10.9009  -35.4620   23.0773 C   0  0  0  0  0  0  0  0  0  0  0  0
  -10.8471  -34.8439   24.6690 S   0  0  0  0  0  0  0  0  0  0  0  0
  -12.3850  -34.0898   24.4355 C   0  0  0  0  0  0  0  0  0  0  0  0
  -13.1612  -33.2993   25.3156 C   0  0  0  0  0  0  0  0  0  0  0  0
  -12.9049  -30.5480   27.0369 H   0  0  0  0  0  0  0  0  0  0  0  0
  -12.5705  -30.9083   25.5945 H   0  0  0  0  0  0  0  0  0  0  0  0
  -13.1875  -25.0884   25.9192 H   0  0  0  0  0  0  0  0  0  0  0  0
  -10.5329  -25.6021   26.3143 H   0  0  0  0  0  0  0  0  0  0  0  0
  -11.2723  -28.7073   27.9652 H   0  0  0  0  0  0  0  0  0  0  0  0
  -15.7339  -32.5630   23.2380 H   0  0  0  0  0  0  0  0  0  0  0  0
  -14.4194  -34.0327   21.7275 H   0  0  0  0  0  0  0  0  0  0  0  0
  -10.1036  -36.0744   22.6751 H   0  0  0  0  0  0  0  0  0  0  0  0
  -12.8542  -33.1428   26.3298 H   0  0  0  0  0  0  0  0  0  0  0  0
  1  2  2  0
  2  3  1  0
  3  4  1  0
  4  5  1  0
  5  6  2  0
  6  7  1  0
  7  8  2  0
  8  9  1  0
  9 10  1  0
 10 11  1  0
 10 12  1  0
  2 13  1  0
 13 14  2  0
 14 15  1  0
 15 16  2  0
 16 17  1  0
 17 18  2  0
 18 19  1  0
 19 20  1  0
 20 21  2  0
  9  5  1  0
 21 13  1  0
 20 16  1  0
  4 22  1  0
  4 23  1  0
  7 24  1  0
  8 25  1  0
 10 26  1  0
 14 27  1  0
 15 28  1  0
 18 29  1  0
 21 30  1  0
M  END
>  <Energy>  (148) 
178.02087792330911

>  <compound_id>  (148) 
12557

>  <target_id>  (148) 
1

>  <reference_id>  (148) 
68

>  <inspiration_ids>  (148) 
[64, 68]

>  <energy_score>  (148) 
72.46878446701055

>  <distance_score>  (148) 
4.388047056938124

>  <path>  (148) 
/opt/xchem-fragalysis-2/maxwin/BulkDock/SCRATCH/511016/C12557-P68/C12557-P68.minimised.mol

>  <scratch_subdir>  (148) 
/opt/xchem-fragalysis-2/maxwin/BulkDock/SCRATCH/511016/C12557-P68

>  <fragmenstein_runtime>  (148) 
8.11660122871399

>  <fragmenstein_outcome>  (148) 
too moved

>  <fragmenstein_mode>  (148) 
expansion

>  <fragmenstein_error>  (148) 


$$$$
C12558-P64
     RDKit          3D

 31 33  0  0  0  0  0  0  0  0999 V2000
  -10.5529  -30.9492   26.0044 O   0  0  0  0  0  0  0  0  0  0  0  0
  -10.3611  -30.4513   24.9319 C   0  0  0  0  0  0  0  0  0  0  0  0
  -10.3067  -29.0677   24.5335 N   0  0  0  0  0  0  0  0  0  0  0  0
  -10.3725  -27.8092   25.3372 C   0  0  0  0  0  0  0  0  0  0  0  0
  -11.5297  -26.9969   25.8477 C   0  0  0  0  0  0  0  0  0  0  0  0
  -12.5713  -26.5872   25.1297 N   0  0  0  0  0  0  0  0  0  0  0  0
  -13.1233  -25.5291   25.8015 C   0  0  0  0  0  0  0  0  0  0  0  0
  -12.3723  -25.2183   26.8994 C   0  0  0  0  0  0  0  0  0  0  0  0
  -11.4123  -26.1956   26.9774 N   0  0  0  0  0  0  0  0  0  0  0  0
  -10.4122  -26.2592   28.0309 C   0  0  0  0  0  0  0  0  0  0  0  0
  -10.2014  -25.0376   28.5893 F   0  0  0  0  0  0  0  0  0  0  0  0
  -10.8234  -27.0867   29.0201 F   0  0  0  0  0  0  0  0  0  0  0  0
  -10.1490  -31.4857   23.8570 C   0  0  0  0  0  0  0  0  0  0  0  0
  -11.0063  -32.5991   23.8624 C   0  0  0  0  0  0  0  0  0  0  0  0
  -10.7096  -33.7514   23.1251 C   0  0  0  0  0  0  0  0  0  0  0  0
   -9.5174  -33.8048   22.3812 C   0  0  0  0  0  0  0  0  0  0  0  0
   -9.0424  -34.9153   21.6994 N   0  0  0  0  0  0  0  0  0  0  0  0
   -7.8831  -34.6239   21.1551 C   0  0  0  0  0  0  0  0  0  0  0  0
   -7.3211  -33.0233   21.3666 S   0  0  0  0  0  0  0  0  0  0  0  0
   -8.7064  -32.6662   22.3321 C   0  0  0  0  0  0  0  0  0  0  0  0
   -9.0181  -31.4798   23.0342 C   0  0  0  0  0  0  0  0  0  0  0  0
  -10.2089  -29.0186   23.5270 H   0  0  0  0  0  0  0  0  0  0  0  0
   -9.4697  -27.7198   25.9297 H   0  0  0  0  0  0  0  0  0  0  0  0
  -10.1445  -27.0737   24.5897 H   0  0  0  0  0  0  0  0  0  0  0  0
  -13.9972  -25.0096   25.4291 H   0  0  0  0  0  0  0  0  0  0  0  0
  -12.4404  -24.4176   27.6257 H   0  0  0  0  0  0  0  0  0  0  0  0
   -9.4600  -26.6089   27.6444 H   0  0  0  0  0  0  0  0  0  0  0  0
  -11.8785  -32.6047   24.5125 H   0  0  0  0  0  0  0  0  0  0  0  0
  -11.3519  -34.6244   23.1770 H   0  0  0  0  0  0  0  0  0  0  0  0
   -7.3117  -35.3467   20.5882 H   0  0  0  0  0  0  0  0  0  0  0  0
   -8.3154  -30.6528   23.0442 H   0  0  0  0  0  0  0  0  0  0  0  0
  1  2  2  0
  2  3  1  0
  3  4  1  0
  4  5  1  0
  5  6  2  0
  6  7  1  0
  7  8  2  0
  8  9  1  0
  9 10  1  0
 10 11  1  0
 10 12  1  0
  2 13  1  0
 13 14  2  0
 14 15  1  0
 15 16  2  0
 16 17  1  0
 17 18  2  0
 18 19  1  0
 19 20  1  0
 20 21  2  0
  9  5  1  0
 21 13  1  0
 20 16  1  0
  3 22  1  0
  4 23  1  0
  4 24  1  0
  7 25  1  0
  8 26  1  0
 10 27  1  0
 14 28  1  0
 15 29  1  0
 18 30  1  0
 21 31  1  0
M  END
>  <Energy>  (149) 
66.640811321893665

>  <compound_id>  (149) 
12558

>  <target_id>  (149) 
1

>  <reference_id>  (149) 
64

>  <inspiration_ids>  (149) 
[64, 68]

>  <energy_score>  (149) 
6.052391539500007

>  <distance_score>  (149) 
3.1787219664520077

>  <path>  (149) 
/opt/xchem-fragalysis-2/maxwin/BulkDock/SCRATCH/511016/C12558-P64/C12558-P64.minimised.mol

>  <scratch_subdir>  (149) 
/opt/xchem-fragalysis-2/maxwin/BulkDock/SCRATCH/511016/C12558-P64

>  <fragmenstein_runtime>  (149) 
4.765199899673462

>  <fragmenstein_outcome>  (149) 
too moved

>  <fragmenstein_mode>  (149) 
expansion

>  <fragmenstein_error>  (149) 


$$$$
C12558-P68
     RDKit          3D

 31 33  0  0  0  0  0  0  0  0999 V2000
  -12.9011  -32.7516   25.0950 O   0  0  0  0  0  0  0  0  0  0  0  0
  -12.4079  -32.2500   24.1087 C   0  0  0  0  0  0  0  0  0  0  0  0
  -12.0797  -30.7096   23.7825 N   0  0  0  0  0  0  0  0  0  0  0  0
  -12.2568  -28.8903   25.0614 C   0  0  0  0  0  0  0  0  0  0  0  0
  -11.9004  -27.4265   25.8310 C   0  0  0  0  0  0  0  0  0  0  0  0
  -12.7006  -26.3669   25.8070 N   0  0  0  0  0  0  0  0  0  0  0  0
  -11.8979  -25.3376   26.1790 C   0  0  0  0  0  0  0  0  0  0  0  0
  -10.6015  -25.7794   26.3802 C   0  0  0  0  0  0  0  0  0  0  0  0
  -10.7430  -27.1386   26.4841 N   0  0  0  0  0  0  0  0  0  0  0  0
  -10.3823  -28.0502   27.5378 C   0  0  0  0  0  0  0  0  0  0  0  0
   -9.3828  -28.9087   27.3163 F   0  0  0  0  0  0  0  0  0  0  0  0
  -10.1539  -27.4000   28.6700 F   0  0  0  0  0  0  0  0  0  0  0  0
  -11.9347  -33.2029   23.0765 C   0  0  0  0  0  0  0  0  0  0  0  0
  -12.2228  -33.1460   21.7267 C   0  0  0  0  0  0  0  0  0  0  0  0
  -11.6323  -34.0913   20.8674 C   0  0  0  0  0  0  0  0  0  0  0  0
  -10.7299  -35.0702   21.3560 C   0  0  0  0  0  0  0  0  0  0  0  0
  -10.0800  -36.0445   20.6150 N   0  0  0  0  0  0  0  0  0  0  0  0
   -9.2976  -36.7529   21.3992 C   0  0  0  0  0  0  0  0  0  0  0  0
   -9.2806  -36.3116   23.0502 S   0  0  0  0  0  0  0  0  0  0  0  0
  -10.4333  -35.0766   22.7166 C   0  0  0  0  0  0  0  0  0  0  0  0
  -11.0318  -34.1634   23.5900 C   0  0  0  0  0  0  0  0  0  0  0  0
  -11.7365  -30.6288   22.7988 H   0  0  0  0  0  0  0  0  0  0  0  0
  -11.2371  -28.2636   24.9271 H   0  0  0  0  0  0  0  0  0  0  0  0
  -12.8565  -27.9874   24.5658 H   0  0  0  0  0  0  0  0  0  0  0  0
  -12.2658  -24.3218   26.3049 H   0  0  0  0  0  0  0  0  0  0  0  0
   -9.7734  -25.2032   26.7639 H   0  0  0  0  0  0  0  0  0  0  0  0
  -11.2033  -28.6788   27.7349 H   0  0  0  0  0  0  0  0  0  0  0  0
  -12.9057  -32.4035   21.3251 H   0  0  0  0  0  0  0  0  0  0  0  0
  -11.8565  -34.0748   19.8031 H   0  0  0  0  0  0  0  0  0  0  0  0
   -8.6921  -37.5686   21.0256 H   0  0  0  0  0  0  0  0  0  0  0  0
  -10.7834  -34.1795   24.6501 H   0  0  0  0  0  0  0  0  0  0  0  0
  1  2  2  0
  2  3  1  0
  3  4  1  0
  4  5  1  0
  5  6  2  0
  6  7  1  0
  7  8  2  0
  8  9  1  0
  9 10  1  0
 10 11  1  0
 10 12  1  0
  2 13  1  0
 13 14  2  0
 14 15  1  0
 15 16  2  0
 16 17  1  0
 17 18  2  0
 18 19  1  0
 19 20  1  0
 20 21  2  0
  9  5  1  0
 21 13  1  0
 20 16  1  0
  3 22  1  0
  4 23  1  0
  4 24  1  0
  7 25  1  0
  8 26  1  0
 10 27  1  0
 14 28  1  0
 15 29  1  0
 18 30  1  0
 21 31  1  0
M  END
>  <Energy>  (150) 
458.70214246269961

>  <compound_id>  (150) 
12558

>  <target_id>  (150) 
1

>  <reference_id>  (150) 
68

>  <inspiration_ids>  (150) 
[64, 68]

>  <energy_score>  (150) 
398.11372268030783

>  <distance_score>  (150) 
2.8143364963270177

>  <path>  (150) 
/opt/xchem-fragalysis-2/maxwin/BulkDock/SCRATCH/511016/C12558-P68/C12558-P68.minimised.mol

>  <scratch_subdir>  (150) 
/opt/xchem-fragalysis-2/maxwin/BulkDock/SCRATCH/511016/C12558-P68

>  <fragmenstein_runtime>  (150) 
5.761682033538818

>  <fragmenstein_outcome>  (150) 
too moved

>  <fragmenstein_mode>  (150) 
expansion

>  <fragmenstein_error>  (150) 


$$$$
C11492-P46
     RDKit          3D

 50 53  0  0  0  0  0  0  0  0999 V2000
   -6.2328  -21.6256   32.0498 O   0  0  0  0  0  0  0  0  0  0  0  0
   -6.4552  -20.8173   32.7546 C   0  0  0  0  0  0  0  0  0  0  0  0
   -5.0231  -19.5872   32.7183 C   0  0  0  0  0  0  0  0  0  0  0  0
   -4.5136  -20.0441   31.6001 C   0  0  0  0  0  0  0  0  0  0  0  0
   -2.6628  -20.0177   31.0527 C   0  0  0  0  0  0  0  0  0  0  0  0
   -2.0784  -20.9703   30.0191 C   0  0  0  0  0  0  0  0  0  0  0  0
   -0.8564  -20.8847   29.2782 C   0  0  0  0  0  0  0  0  0  0  0  0
    0.1130  -20.0511   29.9173 C   0  0  0  0  0  0  0  0  0  0  0  0
   -0.2455  -19.2439   30.9865 C   0  0  0  0  0  0  0  0  0  0  0  0
   -1.6662  -19.3348   31.6724 C   0  0  0  0  0  0  0  0  0  0  0  0
   -2.3282  -18.5481   32.5170 O   0  0  0  0  0  0  0  0  0  0  0  0
   -3.0494  -19.7102   33.1547 C   0  0  0  0  0  0  0  0  0  0  0  0
   -7.9123  -21.1418   33.5109 N   0  0  0  0  0  0  0  0  0  0  0  0
   -9.1815  -20.4834   32.6868 C   0  0  0  0  0  0  0  0  0  0  0  0
  -10.7459  -20.5857   32.4919 C   0  0  0  0  0  0  0  0  0  0  0  0
  -11.5033  -21.8109   32.8210 C   0  0  0  0  0  0  0  0  0  0  0  0
  -12.5911  -21.6055   33.8088 N   0  0  0  0  0  0  0  0  0  0  0  0
  -12.7651  -20.3538   34.5516 C   0  0  0  0  0  0  0  0  0  0  0  0
  -14.1291  -19.6536   34.6295 C   0  0  0  0  0  0  0  0  0  0  0  0
  -15.2944  -20.3680   33.9715 C   0  0  0  0  0  0  0  0  0  0  0  0
  -15.1446  -21.8716   33.9954 C   0  0  0  0  0  0  0  0  0  0  0  0
  -13.8137  -22.2833   33.3872 C   0  0  0  0  0  0  0  0  0  0  0  0
  -10.4232  -22.8793   32.9388 C   0  0  0  0  0  0  0  0  0  0  0  0
   -8.9397  -22.4710   33.4602 C   0  0  0  0  0  0  0  0  0  0  0  0
   -5.1968  -20.4244   30.9650 H   0  0  0  0  0  0  0  0  0  0  0  0
   -2.7874  -21.7194   30.0637 H   0  0  0  0  0  0  0  0  0  0  0  0
   -0.6568  -21.5937   28.5040 H   0  0  0  0  0  0  0  0  0  0  0  0
    1.1377  -20.3889   30.0360 H   0  0  0  0  0  0  0  0  0  0  0  0
    0.3290  -18.3168   30.9516 H   0  0  0  0  0  0  0  0  0  0  0  0
   -2.2546  -20.4029   33.3499 H   0  0  0  0  0  0  0  0  0  0  0  0
   -2.6694  -19.4707   34.1541 H   0  0  0  0  0  0  0  0  0  0  0  0
   -9.2021  -20.9483   31.7650 H   0  0  0  0  0  0  0  0  0  0  0  0
   -9.0815  -19.4359   32.9723 H   0  0  0  0  0  0  0  0  0  0  0  0
  -10.9121  -20.5167   31.4130 H   0  0  0  0  0  0  0  0  0  0  0  0
  -11.1552  -19.6919   32.9124 H   0  0  0  0  0  0  0  0  0  0  0  0
  -12.0165  -22.0840   31.8865 H   0  0  0  0  0  0  0  0  0  0  0  0
  -12.0587  -19.5513   34.3606 H   0  0  0  0  0  0  0  0  0  0  0  0
  -12.4714  -20.5794   35.5705 H   0  0  0  0  0  0  0  0  0  0  0  0
  -14.3705  -19.4497   35.6767 H   0  0  0  0  0  0  0  0  0  0  0  0
  -14.0451  -18.6452   34.2139 H   0  0  0  0  0  0  0  0  0  0  0  0
  -16.2329  -20.0736   34.4553 H   0  0  0  0  0  0  0  0  0  0  0  0
  -15.3813  -20.0447   32.9282 H   0  0  0  0  0  0  0  0  0  0  0  0
  -15.2770  -22.2721   34.9980 H   0  0  0  0  0  0  0  0  0  0  0  0
  -15.9562  -22.3178   33.4060 H   0  0  0  0  0  0  0  0  0  0  0  0
  -13.6679  -23.3511   33.5628 H   0  0  0  0  0  0  0  0  0  0  0  0
  -13.9515  -22.0994   32.3161 H   0  0  0  0  0  0  0  0  0  0  0  0
  -10.8096  -23.7479   33.4884 H   0  0  0  0  0  0  0  0  0  0  0  0
  -10.2921  -23.3074   31.9360 H   0  0  0  0  0  0  0  0  0  0  0  0
   -8.3668  -23.1784   32.8440 H   0  0  0  0  0  0  0  0  0  0  0  0
   -8.5710  -23.0617   34.2823 H   0  0  0  0  0  0  0  0  0  0  0  0
  1  2  2  0
  2  3  1  0
  3  4  2  0
  4  5  1  0
  5  6  2  0
  6  7  1  0
  7  8  2  0
  8  9  1  0
  9 10  2  0
 10 11  1  0
 11 12  1  0
  2 13  1  0
 13 14  1  0
 14 15  1  0
 15 16  1  0
 16 17  1  0
 17 18  1  0
 18 19  1  0
 19 20  1  0
 20 21  1  0
 21 22  1  0
 16 23  1  0
 23 24  1  0
 12  3  1  0
 24 13  1  0
 10  5  1  0
 22 17  1  0
  4 25  1  0
  6 26  1  0
  7 27  1  0
  8 28  1  0
  9 29  1  0
 12 30  1  0
 12 31  1  0
 14 32  1  0
 14 33  1  0
 15 34  1  0
 15 35  1  0
 16 36  1  0
 18 37  1  0
 18 38  1  0
 19 39  1  0
 19 40  1  0
 20 41  1  0
 20 42  1  0
 21 43  1  0
 21 44  1  0
 22 45  1  0
 22 46  1  0
 23 47  1  0
 23 48  1  0
 24 49  1  0
 24 50  1  0
M  END
>  <Energy>  (151) 
706.20919628483932

>  <compound_id>  (151) 
11492

>  <target_id>  (151) 
1

>  <reference_id>  (151) 
46

>  <inspiration_ids>  (151) 
[89, 46]

>  <energy_score>  (151) 
640.3007728608363

>  <distance_score>  (151) 
5.912130700318508

>  <path>  (151) 
/opt/xchem-fragalysis-2/maxwin/BulkDock/SCRATCH/511016/C11492-P46/C11492-P46.minimised.mol

>  <scratch_subdir>  (151) 
/opt/xchem-fragalysis-2/maxwin/BulkDock/SCRATCH/511016/C11492-P46

>  <fragmenstein_runtime>  (151) 
39.03437328338623

>  <fragmenstein_outcome>  (151) 
too moved

>  <fragmenstein_mode>  (151) 
expansion

>  <fragmenstein_error>  (151) 


$$$$
C11492-P46
     RDKit          3D

 50 53  0  0  0  0  0  0  0  0999 V2000
   -6.2328  -21.6256   32.0498 O   0  0  0  0  0  0  0  0  0  0  0  0
   -6.4552  -20.8173   32.7546 C   0  0  0  0  0  0  0  0  0  0  0  0
   -5.0231  -19.5872   32.7183 C   0  0  0  0  0  0  0  0  0  0  0  0
   -4.5136  -20.0441   31.6001 C   0  0  0  0  0  0  0  0  0  0  0  0
   -2.6628  -20.0177   31.0527 C   0  0  0  0  0  0  0  0  0  0  0  0
   -2.0784  -20.9703   30.0191 C   0  0  0  0  0  0  0  0  0  0  0  0
   -0.8564  -20.8847   29.2782 C   0  0  0  0  0  0  0  0  0  0  0  0
    0.1130  -20.0511   29.9173 C   0  0  0  0  0  0  0  0  0  0  0  0
   -0.2455  -19.2439   30.9865 C   0  0  0  0  0  0  0  0  0  0  0  0
   -1.6662  -19.3348   31.6724 C   0  0  0  0  0  0  0  0  0  0  0  0
   -2.3282  -18.5481   32.5170 O   0  0  0  0  0  0  0  0  0  0  0  0
   -3.0494  -19.7102   33.1547 C   0  0  0  0  0  0  0  0  0  0  0  0
   -7.9123  -21.1418   33.5109 N   0  0  0  0  0  0  0  0  0  0  0  0
   -9.1815  -20.4834   32.6868 C   0  0  0  0  0  0  0  0  0  0  0  0
  -10.7459  -20.5857   32.4919 C   0  0  0  0  0  0  0  0  0  0  0  0
  -11.5033  -21.8109   32.8210 C   0  0  0  0  0  0  0  0  0  0  0  0
  -12.5911  -21.6055   33.8088 N   0  0  0  0  0  0  0  0  0  0  0  0
  -12.7651  -20.3538   34.5516 C   0  0  0  0  0  0  0  0  0  0  0  0
  -14.1291  -19.6536   34.6295 C   0  0  0  0  0  0  0  0  0  0  0  0
  -15.2944  -20.3680   33.9715 C   0  0  0  0  0  0  0  0  0  0  0  0
  -15.1446  -21.8716   33.9954 C   0  0  0  0  0  0  0  0  0  0  0  0
  -13.8137  -22.2833   33.3872 C   0  0  0  0  0  0  0  0  0  0  0  0
  -10.4232  -22.8793   32.9388 C   0  0  0  0  0  0  0  0  0  0  0  0
   -8.9397  -22.4710   33.4602 C   0  0  0  0  0  0  0  0  0  0  0  0
   -5.1968  -20.4244   30.9650 H   0  0  0  0  0  0  0  0  0  0  0  0
   -2.7874  -21.7194   30.0637 H   0  0  0  0  0  0  0  0  0  0  0  0
   -0.6568  -21.5937   28.5040 H   0  0  0  0  0  0  0  0  0  0  0  0
    1.1377  -20.3889   30.0360 H   0  0  0  0  0  0  0  0  0  0  0  0
    0.3290  -18.3168   30.9516 H   0  0  0  0  0  0  0  0  0  0  0  0
   -2.2546  -20.4029   33.3499 H   0  0  0  0  0  0  0  0  0  0  0  0
   -2.6694  -19.4707   34.1541 H   0  0  0  0  0  0  0  0  0  0  0  0
   -9.2021  -20.9483   31.7650 H   0  0  0  0  0  0  0  0  0  0  0  0
   -9.0815  -19.4359   32.9723 H   0  0  0  0  0  0  0  0  0  0  0  0
  -10.9121  -20.5167   31.4130 H   0  0  0  0  0  0  0  0  0  0  0  0
  -11.1552  -19.6919   32.9124 H   0  0  0  0  0  0  0  0  0  0  0  0
  -12.0165  -22.0840   31.8865 H   0  0  0  0  0  0  0  0  0  0  0  0
  -12.0587  -19.5513   34.3606 H   0  0  0  0  0  0  0  0  0  0  0  0
  -12.4714  -20.5794   35.5705 H   0  0  0  0  0  0  0  0  0  0  0  0
  -14.3705  -19.4497   35.6767 H   0  0  0  0  0  0  0  0  0  0  0  0
  -14.0451  -18.6452   34.2139 H   0  0  0  0  0  0  0  0  0  0  0  0
  -16.2329  -20.0736   34.4553 H   0  0  0  0  0  0  0  0  0  0  0  0
  -15.3813  -20.0447   32.9282 H   0  0  0  0  0  0  0  0  0  0  0  0
  -15.2770  -22.2721   34.9980 H   0  0  0  0  0  0  0  0  0  0  0  0
  -15.9562  -22.3178   33.4060 H   0  0  0  0  0  0  0  0  0  0  0  0
  -13.6679  -23.3511   33.5628 H   0  0  0  0  0  0  0  0  0  0  0  0
  -13.9515  -22.0994   32.3161 H   0  0  0  0  0  0  0  0  0  0  0  0
  -10.8096  -23.7479   33.4884 H   0  0  0  0  0  0  0  0  0  0  0  0
  -10.2921  -23.3074   31.9360 H   0  0  0  0  0  0  0  0  0  0  0  0
   -8.3668  -23.1784   32.8440 H   0  0  0  0  0  0  0  0  0  0  0  0
   -8.5710  -23.0617   34.2823 H   0  0  0  0  0  0  0  0  0  0  0  0
  1  2  2  0
  2  3  1  0
  3  4  2  0
  4  5  1  0
  5  6  2  0
  6  7  1  0
  7  8  2  0
  8  9  1  0
  9 10  2  0
 10 11  1  0
 11 12  1  0
  2 13  1  0
 13 14  1  0
 14 15  1  0
 15 16  1  0
 16 17  1  0
 17 18  1  0
 18 19  1  0
 19 20  1  0
 20 21  1  0
 21 22  1  0
 16 23  1  0
 23 24  1  0
 12  3  1  0
 24 13  1  0
 10  5  1  0
 22 17  1  0
  4 25  1  0
  6 26  1  0
  7 27  1  0
  8 28  1  0
  9 29  1  0
 12 30  1  0
 12 31  1  0
 14 32  1  0
 14 33  1  0
 15 34  1  0
 15 35  1  0
 16 36  1  0
 18 37  1  0
 18 38  1  0
 19 39  1  0
 19 40  1  0
 20 41  1  0
 20 42  1  0
 21 43  1  0
 21 44  1  0
 22 45  1  0
 22 46  1  0
 23 47  1  0
 23 48  1  0
 24 49  1  0
 24 50  1  0
M  END
>  <Energy>  (152) 
706.20919628483932

>  <compound_id>  (152) 
11492

>  <target_id>  (152) 
1

>  <reference_id>  (152) 
46

>  <inspiration_ids>  (152) 
[89, 46]

>  <energy_score>  (152) 
640.3007728608363

>  <distance_score>  (152) 
5.912130700318508

>  <path>  (152) 
/opt/xchem-fragalysis-2/maxwin/BulkDock/SCRATCH/511016/C11492-P46/C11492-P46.minimised.mol

>  <scratch_subdir>  (152) 
/opt/xchem-fragalysis-2/maxwin/BulkDock/SCRATCH/511016/C11492-P46

>  <fragmenstein_runtime>  (152) 
39.62765192985535

>  <fragmenstein_outcome>  (152) 
too moved

>  <fragmenstein_mode>  (152) 
expansion

>  <fragmenstein_error>  (152) 


$$$$
C11496-P46
     RDKit          3D

 61 64  0  0  0  0  0  0  0  0999 V2000
   -0.6539  -21.6868   28.2346 O   0  0  0  0  0  0  0  0  0  0  0  0
   -1.0840  -21.2697   29.2809 C   0  0  0  0  0  0  0  0  0  0  0  0
   -2.4521  -21.6979   30.0987 N   0  0  0  0  0  0  0  0  0  0  0  0
   -3.8368  -23.1455   29.7154 C   0  0  0  0  0  0  0  0  0  0  0  0
   -5.1512  -23.3836   28.0722 C   0  0  0  0  0  0  0  0  0  0  0  0
   -7.1154  -22.9813   27.6764 C   0  0  0  0  0  0  0  0  0  0  0  0
   -8.8732  -23.2921   28.4075 N   0  0  0  0  0  0  0  0  0  0  0  0
  -10.2655  -22.7114   28.1514 C   0  0  0  0  0  0  0  0  0  0  0  0
  -11.5218  -23.0152   29.0886 C   0  0  0  0  0  0  0  0  0  0  0  0
  -11.1299  -23.2667   30.5459 C   0  0  0  0  0  0  0  0  0  0  0  0
  -12.1143  -23.2309   31.6184 N   0  0  0  0  0  0  0  0  0  0  0  0
  -12.7204  -21.9047   31.7302 C   0  0  0  0  0  0  0  0  0  0  0  0
  -13.3948  -21.5199   33.0493 C   0  0  0  0  0  0  0  0  0  0  0  0
  -13.8670  -22.7320   33.7808 C   0  0  0  0  0  0  0  0  0  0  0  0
  -12.6691  -23.6333   34.0305 C   0  0  0  0  0  0  0  0  0  0  0  0
  -11.6150  -23.6665   32.9169 C   0  0  0  0  0  0  0  0  0  0  0  0
  -10.2442  -24.5348   30.5063 C   0  0  0  0  0  0  0  0  0  0  0  0
   -9.3526  -24.6453   29.2184 C   0  0  0  0  0  0  0  0  0  0  0  0
    0.1130  -20.0965   30.0272 C   0  0  0  0  0  0  0  0  0  0  0  0
    1.2752  -20.4822   30.4849 C   0  0  0  0  0  0  0  0  0  0  0  0
    2.1782  -19.6802   31.1997 C   0  0  0  0  0  0  0  0  0  0  0  0
    2.9853  -20.5176   32.0426 C   0  0  0  0  0  0  0  0  0  0  0  0
    4.2807  -20.4369   31.7534 C   0  0  0  0  0  0  0  0  0  0  0  0
    4.9674  -19.0942   30.8460 C   0  0  0  0  0  0  0  0  0  0  0  0
    4.0188  -17.8766   30.2857 C   0  0  0  0  0  0  0  0  0  0  0  0
    2.3426  -18.0941   30.6921 C   0  0  0  0  0  0  0  0  0  0  0  0
    1.1644  -17.5485   30.3280 O   0  0  0  0  0  0  0  0  0  0  0  0
    0.1838  -18.6807   30.3450 C   0  0  0  0  0  0  0  0  0  0  0  0
   -2.5640  -21.1092   30.8857 H   0  0  0  0  0  0  0  0  0  0  0  0
   -4.2050  -23.2293   30.7549 H   0  0  0  0  0  0  0  0  0  0  0  0
   -3.6351  -24.1331   29.8251 H   0  0  0  0  0  0  0  0  0  0  0  0
   -4.8776  -22.5626   27.4285 H   0  0  0  0  0  0  0  0  0  0  0  0
   -4.7602  -24.2563   27.5506 H   0  0  0  0  0  0  0  0  0  0  0  0
   -7.1471  -21.9059   27.7126 H   0  0  0  0  0  0  0  0  0  0  0  0
   -7.2159  -23.2158   26.6158 H   0  0  0  0  0  0  0  0  0  0  0  0
  -10.2012  -21.6308   28.2024 H   0  0  0  0  0  0  0  0  0  0  0  0
  -10.6316  -23.0904   27.1908 H   0  0  0  0  0  0  0  0  0  0  0  0
  -12.0671  -23.8850   28.6983 H   0  0  0  0  0  0  0  0  0  0  0  0
  -12.2066  -22.1638   29.0050 H   0  0  0  0  0  0  0  0  0  0  0  0
  -10.5944  -22.3716   30.8500 H   0  0  0  0  0  0  0  0  0  0  0  0
  -11.9621  -21.1394   31.5505 H   0  0  0  0  0  0  0  0  0  0  0  0
  -13.4665  -21.8426   30.9341 H   0  0  0  0  0  0  0  0  0  0  0  0
  -12.6950  -20.9576   33.6799 H   0  0  0  0  0  0  0  0  0  0  0  0
  -14.2613  -20.8779   32.8628 H   0  0  0  0  0  0  0  0  0  0  0  0
  -14.6636  -23.2111   33.2265 H   0  0  0  0  0  0  0  0  0  0  0  0
  -14.4192  -22.4641   34.6720 H   0  0  0  0  0  0  0  0  0  0  0  0
  -13.0071  -24.6468   34.2336 H   0  0  0  0  0  0  0  0  0  0  0  0
  -12.1694  -23.2927   34.9370 H   0  0  0  0  0  0  0  0  0  0  0  0
  -11.2386  -24.6948   32.8760 H   0  0  0  0  0  0  0  0  0  0  0  0
  -10.7662  -23.0329   33.1863 H   0  0  0  0  0  0  0  0  0  0  0  0
  -10.8740  -25.4330   30.5549 H   0  0  0  0  0  0  0  0  0  0  0  0
   -9.5864  -24.5689   31.3842 H   0  0  0  0  0  0  0  0  0  0  0  0
   -8.5005  -25.2522   29.4754 H   0  0  0  0  0  0  0  0  0  0  0  0
   -9.9687  -25.2348   28.5186 H   0  0  0  0  0  0  0  0  0  0  0  0
    1.8150  -21.2854   30.0667 H   0  0  0  0  0  0  0  0  0  0  0  0
    2.6461  -21.1296   32.8346 H   0  0  0  0  0  0  0  0  0  0  0  0
    4.7922  -21.3885   31.8856 H   0  0  0  0  0  0  0  0  0  0  0  0
    6.0129  -19.2330   30.5846 H   0  0  0  0  0  0  0  0  0  0  0  0
    4.3043  -17.1411   29.5804 H   0  0  0  0  0  0  0  0  0  0  0  0
   -0.5516  -18.5275   31.0976 H   0  0  0  0  0  0  0  0  0  0  0  0
    0.0438  -18.7239   29.2917 H   0  0  0  0  0  0  0  0  0  0  0  0
  1  2  2  0
  2  3  1  0
  3  4  1  0
  4  5  1  0
  5  6  1  0
  6  7  1  0
  7  8  1  0
  8  9  1  0
  9 10  1  0
 10 11  1  0
 11 12  1  0
 12 13  1  0
 13 14  1  0
 14 15  1  0
 15 16  1  0
 10 17  1  0
 17 18  1  0
  2 19  1  0
 19 20  2  0
 20 21  1  0
 21 22  2  0
 22 23  1  0
 23 24  2  0
 24 25  1  0
 25 26  2  0
 26 27  1  0
 27 28  1  0
 18  7  1  0
 28 19  1  0
 16 11  1  0
 26 21  1  0
  3 29  1  0
  4 30  1  0
  4 31  1  0
  5 32  1  0
  5 33  1  0
  6 34  1  0
  6 35  1  0
  8 36  1  0
  8 37  1  0
  9 38  1  0
  9 39  1  0
 10 40  1  0
 12 41  1  0
 12 42  1  0
 13 43  1  0
 13 44  1  0
 14 45  1  0
 14 46  1  0
 15 47  1  0
 15 48  1  0
 16 49  1  0
 16 50  1  0
 17 51  1  0
 17 52  1  0
 18 53  1  0
 18 54  1  0
 20 55  1  0
 22 56  1  0
 23 57  1  0
 24 58  1  0
 25 59  1  0
 28 60  1  0
 28 61  1  0
M  END
>  <Energy>  (153) 
765.42342874569476

>  <compound_id>  (153) 
11496

>  <target_id>  (153) 
1

>  <reference_id>  (153) 
46

>  <inspiration_ids>  (153) 
[89, 46]

>  <energy_score>  (153) 
701.6005952914782

>  <distance_score>  (153) 
3.8422420733900617

>  <path>  (153) 
/opt/xchem-fragalysis-2/maxwin/BulkDock/SCRATCH/511016/C11496-P46/C11496-P46.minimised.mol

>  <scratch_subdir>  (153) 
/opt/xchem-fragalysis-2/maxwin/BulkDock/SCRATCH/511016/C11496-P46

>  <fragmenstein_runtime>  (153) 
33.34956741333008

>  <fragmenstein_outcome>  (153) 
too moved

>  <fragmenstein_mode>  (153) 
expansion

>  <fragmenstein_error>  (153) 


$$$$
C11497-P46
     RDKit          3D

 47 50  0  0  0  0  0  0  0  0999 V2000
   -0.0140  -22.8669   27.6817 O   0  0  0  0  0  0  0  0  0  0  0  0
   -1.1251  -22.6197   28.2210 C   0  0  0  0  0  0  0  0  0  0  0  0
   -2.5408  -23.7267   27.7542 O   0  0  0  0  0  0  0  0  0  0  0  0
   -4.4997  -23.7190   27.8971 C   0  0  0  0  0  0  0  0  0  0  0  0
   -6.4491  -23.1712   27.4891 C   0  0  0  0  0  0  0  0  0  0  0  0
   -6.4666  -23.1068   26.2529 O   0  0  0  0  0  0  0  0  0  0  0  0
   -8.2943  -23.1594   28.0940 C   0  0  0  0  0  0  0  0  0  0  0  0
   -9.6573  -22.5794   28.2404 C   0  0  0  0  0  0  0  0  0  0  0  0
  -10.8292  -23.3143   28.4276 N   0  0  0  0  0  0  0  0  0  0  0  0
  -10.6521  -24.0092   29.5054 C   0  0  0  0  0  0  0  0  0  0  0  0
  -11.3462  -23.8457   30.6863 N   0  0  0  0  0  0  0  0  0  0  0  0
  -10.8550  -24.5740   31.8779 C   0  0  0  0  0  0  0  0  0  0  0  0
  -11.6300  -24.3155   33.1670 C   0  0  0  0  0  0  0  0  0  0  0  0
  -12.1862  -22.9128   33.3307 C   0  0  0  0  0  0  0  0  0  0  0  0
  -11.5644  -21.9759   32.3252 C   0  0  0  0  0  0  0  0  0  0  0  0
  -11.8304  -22.4632   30.9116 C   0  0  0  0  0  0  0  0  0  0  0  0
   -9.1470  -24.8344   29.3430 S   0  0  0  0  0  0  0  0  0  0  0  0
   -1.0586  -21.0386   29.2661 C   0  0  0  0  0  0  0  0  0  0  0  0
    0.2002  -21.1684   29.3954 C   0  0  0  0  0  0  0  0  0  0  0  0
    1.9649  -21.6052   29.3610 C   0  0  0  0  0  0  0  0  0  0  0  0
    2.7458  -22.4051   27.9563 C   0  0  0  0  0  0  0  0  0  0  0  0
    4.0994  -22.7504   28.0966 C   0  0  0  0  0  0  0  0  0  0  0  0
    4.5427  -22.4840   29.4726 C   0  0  0  0  0  0  0  0  0  0  0  0
    3.8133  -21.8381   30.8134 C   0  0  0  0  0  0  0  0  0  0  0  0
    2.4295  -21.2231   30.6390 C   0  0  0  0  0  0  0  0  0  0  0  0
    1.6421  -20.1218   31.0430 O   0  0  0  0  0  0  0  0  0  0  0  0
    0.0625  -19.6957   30.2215 C   0  0  0  0  0  0  0  0  0  0  0  0
   -4.5519  -24.2478   28.8374 H   0  0  0  0  0  0  0  0  0  0  0  0
   -4.4916  -24.5394   27.1763 H   0  0  0  0  0  0  0  0  0  0  0  0
   -9.9285  -21.5351   28.1192 H   0  0  0  0  0  0  0  0  0  0  0  0
   -9.8124  -24.2916   32.0757 H   0  0  0  0  0  0  0  0  0  0  0  0
  -10.8634  -25.6541   31.6828 H   0  0  0  0  0  0  0  0  0  0  0  0
  -10.9822  -24.5769   34.0097 H   0  0  0  0  0  0  0  0  0  0  0  0
  -12.4464  -25.0171   33.2582 H   0  0  0  0  0  0  0  0  0  0  0  0
  -12.0420  -22.5553   34.3503 H   0  0  0  0  0  0  0  0  0  0  0  0
  -13.2730  -22.9181   33.2002 H   0  0  0  0  0  0  0  0  0  0  0  0
  -10.4840  -21.9179   32.4736 H   0  0  0  0  0  0  0  0  0  0  0  0
  -11.9635  -20.9716   32.4705 H   0  0  0  0  0  0  0  0  0  0  0  0
  -12.8930  -22.3884   30.6769 H   0  0  0  0  0  0  0  0  0  0  0  0
  -11.3474  -21.7393   30.2446 H   0  0  0  0  0  0  0  0  0  0  0  0
    0.5870  -21.2361   30.3031 H   0  0  0  0  0  0  0  0  0  0  0  0
    2.1838  -22.8913   27.1992 H   0  0  0  0  0  0  0  0  0  0  0  0
    4.6589  -23.3502   27.3943 H   0  0  0  0  0  0  0  0  0  0  0  0
    5.3348  -23.1099   29.7480 H   0  0  0  0  0  0  0  0  0  0  0  0
    4.3781  -21.6671   31.7261 H   0  0  0  0  0  0  0  0  0  0  0  0
   -0.4361  -19.4232   31.1529 H   0  0  0  0  0  0  0  0  0  0  0  0
    0.3161  -18.8055   29.6915 H   0  0  0  0  0  0  0  0  0  0  0  0
  1  2  2  0
  2  3  1  0
  3  4  1  0
  4  5  1  0
  5  6  2  0
  5  7  1  0
  7  8  2  0
  8  9  1  0
  9 10  2  0
 10 11  1  0
 11 12  1  0
 12 13  1  0
 13 14  1  0
 14 15  1  0
 15 16  1  0
 10 17  1  0
  2 18  1  0
 18 19  2  0
 19 20  1  0
 20 21  2  0
 21 22  1  0
 22 23  2  0
 23 24  1  0
 24 25  2  0
 25 26  1  0
 26 27  1  0
 17  7  1  0
 27 18  1  0
 16 11  1  0
 25 20  1  0
  4 28  1  0
  4 29  1  0
  8 30  1  0
 12 31  1  0
 12 32  1  0
 13 33  1  0
 13 34  1  0
 14 35  1  0
 14 36  1  0
 15 37  1  0
 15 38  1  0
 16 39  1  0
 16 40  1  0
 19 41  1  0
 21 42  1  0
 22 43  1  0
 23 44  1  0
 24 45  1  0
 27 46  1  0
 27 47  1  0
M  END
>  <Energy>  (154) 
1061.082545854186

>  <compound_id>  (154) 
11497

>  <target_id>  (154) 
1

>  <reference_id>  (154) 
46

>  <inspiration_ids>  (154) 
[89, 46]

>  <energy_score>  (154) 
954.9381882443176

>  <distance_score>  (154) 
4.483411072472277

>  <path>  (154) 
/opt/xchem-fragalysis-2/maxwin/BulkDock/SCRATCH/511016/C11497-P46/C11497-P46.minimised.mol

>  <scratch_subdir>  (154) 
/opt/xchem-fragalysis-2/maxwin/BulkDock/SCRATCH/511016/C11497-P46

>  <fragmenstein_runtime>  (154) 
20.551647663116455

>  <fragmenstein_outcome>  (154) 
too moved

>  <fragmenstein_mode>  (154) 
expansion

>  <fragmenstein_error>  (154) 


$$$$
C11500-P46
     RDKit          3D

 49 52  0  0  0  0  0  0  0  0999 V2000
   -2.1857  -20.9127   30.3528 O   0  0  0  0  0  0  0  0  0  0  0  0
   -1.8895  -20.1689   31.2853 C   0  0  0  0  0  0  0  0  0  0  0  0
   -2.9125  -19.5685   32.4029 N   0  0  0  0  0  0  0  0  0  0  0  0
   -4.8555  -19.6767   32.5381 C   0  0  0  0  0  0  0  0  0  0  0  0
   -6.3171  -18.5086   32.8409 C   0  0  0  0  0  0  0  0  0  0  0  0
   -6.2581  -17.1035   32.8636 C   0  0  0  0  0  0  0  0  0  0  0  0
   -7.1214  -16.3773   33.7105 C   0  0  0  0  0  0  0  0  0  0  0  0
   -8.0336  -17.0227   34.5246 C   0  0  0  0  0  0  0  0  0  0  0  0
   -8.8444  -16.3633   35.4715 N   0  0  0  0  0  0  0  0  0  0  0  0
  -10.2644  -16.5021   35.0878 C   0  0  0  0  0  0  0  0  0  0  0  0
  -11.2028  -15.9678   36.1590 C   0  0  0  0  0  0  0  0  0  0  0  0
  -10.8881  -16.5766   37.5129 C   0  0  0  0  0  0  0  0  0  0  0  0
   -9.4473  -16.2595   37.8827 C   0  0  0  0  0  0  0  0  0  0  0  0
   -8.4383  -16.7123   36.8311 C   0  0  0  0  0  0  0  0  0  0  0  0
   -8.1002  -18.3416   34.4844 N   0  0  0  0  0  0  0  0  0  0  0  0
   -7.2777  -19.0527   33.7340 C   0  0  0  0  0  0  0  0  0  0  0  0
   -0.1570  -19.6938   31.1131 C   0  0  0  0  0  0  0  0  0  0  0  0
    0.2400  -20.4092   29.8886 C   0  0  0  0  0  0  0  0  0  0  0  0
    1.7479  -21.2172   29.7641 C   0  0  0  0  0  0  0  0  0  0  0  0
    2.2842  -22.1947   28.2514 C   0  0  0  0  0  0  0  0  0  0  0  0
    3.7024  -22.6948   28.0729 C   0  0  0  0  0  0  0  0  0  0  0  0
    4.4182  -22.4933   29.3707 C   0  0  0  0  0  0  0  0  0  0  0  0
    3.8365  -21.8307   30.8255 C   0  0  0  0  0  0  0  0  0  0  0  0
    2.4157  -21.0223   30.9321 C   0  0  0  0  0  0  0  0  0  0  0  0
    2.1975  -19.6576   31.2009 O   0  0  0  0  0  0  0  0  0  0  0  0
    0.8557  -18.7855   30.7235 C   0  0  0  0  0  0  0  0  0  0  0  0
   -2.3951  -19.0739   33.0711 H   0  0  0  0  0  0  0  0  0  0  0  0
   -5.1677  -20.1881   31.6401 H   0  0  0  0  0  0  0  0  0  0  0  0
   -4.7906  -18.6320   32.4611 H   0  0  0  0  0  0  0  0  0  0  0  0
   -5.4887  -16.5451   32.3432 H   0  0  0  0  0  0  0  0  0  0  0  0
   -6.9856  -15.3069   33.7605 H   0  0  0  0  0  0  0  0  0  0  0  0
  -10.4447  -15.9151   34.1822 H   0  0  0  0  0  0  0  0  0  0  0  0
  -10.5671  -17.5214   34.8498 H   0  0  0  0  0  0  0  0  0  0  0  0
  -12.2412  -16.1836   35.8828 H   0  0  0  0  0  0  0  0  0  0  0  0
  -11.1117  -14.8760   36.2198 H   0  0  0  0  0  0  0  0  0  0  0  0
  -11.5615  -16.1607   38.2708 H   0  0  0  0  0  0  0  0  0  0  0  0
  -11.0619  -17.6558   37.4922 H   0  0  0  0  0  0  0  0  0  0  0  0
   -9.3521  -15.1737   38.0161 H   0  0  0  0  0  0  0  0  0  0  0  0
   -9.1994  -16.7112   38.8501 H   0  0  0  0  0  0  0  0  0  0  0  0
   -8.2244  -17.7716   36.9545 H   0  0  0  0  0  0  0  0  0  0  0  0
   -7.4950  -16.1936   37.0447 H   0  0  0  0  0  0  0  0  0  0  0  0
   -7.4187  -20.1245   33.7963 H   0  0  0  0  0  0  0  0  0  0  0  0
   -0.4705  -20.9436   29.2356 H   0  0  0  0  0  0  0  0  0  0  0  0
    1.4839  -22.5565   27.6130 H   0  0  0  0  0  0  0  0  0  0  0  0
    4.0700  -23.2826   27.2461 H   0  0  0  0  0  0  0  0  0  0  0  0
    5.2783  -23.0688   29.4681 H   0  0  0  0  0  0  0  0  0  0  0  0
    4.4901  -21.7204   31.6878 H   0  0  0  0  0  0  0  0  0  0  0  0
    0.9253  -17.7234   30.9602 H   0  0  0  0  0  0  0  0  0  0  0  0
    0.6791  -18.5035   29.7022 H   0  0  0  0  0  0  0  0  0  0  0  0
  1  2  2  0
  2  3  1  0
  3  4  1  0
  4  5  1  0
  5  6  2  0
  6  7  1  0
  7  8  2  0
  8  9  1  0
  9 10  1  0
 10 11  1  0
 11 12  1  0
 12 13  1  0
 13 14  1  0
  8 15  1  0
 15 16  2  0
  2 17  1  0
 17 18  2  0
 18 19  1  0
 19 20  2  0
 20 21  1  0
 21 22  2  0
 22 23  1  0
 23 24  2  0
 24 25  1  0
 25 26  1  0
 16  5  1  0
 26 17  1  0
 14  9  1  0
 24 19  1  0
  3 27  1  0
  4 28  1  0
  4 29  1  0
  6 30  1  0
  7 31  1  0
 10 32  1  0
 10 33  1  0
 11 34  1  0
 11 35  1  0
 12 36  1  0
 12 37  1  0
 13 38  1  0
 13 39  1  0
 14 40  1  0
 14 41  1  0
 16 42  1  0
 18 43  1  0
 20 44  1  0
 21 45  1  0
 22 46  1  0
 23 47  1  0
 26 48  1  0
 26 49  1  0
M  END
>  <Energy>  (155) 
536.39424805182932

>  <compound_id>  (155) 
11500

>  <target_id>  (155) 
1

>  <reference_id>  (155) 
46

>  <inspiration_ids>  (155) 
[89, 46]

>  <energy_score>  (155) 
532.0420014502677

>  <distance_score>  (155) 
6.453416552003805

>  <path>  (155) 
/opt/xchem-fragalysis-2/maxwin/BulkDock/SCRATCH/511016/C11500-P46/C11500-P46.minimised.mol

>  <scratch_subdir>  (155) 
/opt/xchem-fragalysis-2/maxwin/BulkDock/SCRATCH/511016/C11500-P46

>  <fragmenstein_runtime>  (155) 
28.50376796722412

>  <fragmenstein_outcome>  (155) 
too moved

>  <fragmenstein_mode>  (155) 
expansion

>  <fragmenstein_error>  (155) 


$$$$
C11496-P46
     RDKit          3D

 61 64  0  0  0  0  0  0  0  0999 V2000
   -0.6539  -21.6868   28.2346 O   0  0  0  0  0  0  0  0  0  0  0  0
   -1.0840  -21.2697   29.2809 C   0  0  0  0  0  0  0  0  0  0  0  0
   -2.4521  -21.6979   30.0987 N   0  0  0  0  0  0  0  0  0  0  0  0
   -3.8368  -23.1455   29.7154 C   0  0  0  0  0  0  0  0  0  0  0  0
   -5.1512  -23.3836   28.0722 C   0  0  0  0  0  0  0  0  0  0  0  0
   -7.1154  -22.9813   27.6764 C   0  0  0  0  0  0  0  0  0  0  0  0
   -8.8732  -23.2921   28.4075 N   0  0  0  0  0  0  0  0  0  0  0  0
  -10.2655  -22.7114   28.1514 C   0  0  0  0  0  0  0  0  0  0  0  0
  -11.5218  -23.0152   29.0886 C   0  0  0  0  0  0  0  0  0  0  0  0
  -11.1299  -23.2667   30.5459 C   0  0  0  0  0  0  0  0  0  0  0  0
  -12.1143  -23.2309   31.6184 N   0  0  0  0  0  0  0  0  0  0  0  0
  -12.7204  -21.9047   31.7302 C   0  0  0  0  0  0  0  0  0  0  0  0
  -13.3948  -21.5199   33.0493 C   0  0  0  0  0  0  0  0  0  0  0  0
  -13.8670  -22.7320   33.7808 C   0  0  0  0  0  0  0  0  0  0  0  0
  -12.6691  -23.6333   34.0305 C   0  0  0  0  0  0  0  0  0  0  0  0
  -11.6150  -23.6665   32.9169 C   0  0  0  0  0  0  0  0  0  0  0  0
  -10.2442  -24.5348   30.5063 C   0  0  0  0  0  0  0  0  0  0  0  0
   -9.3526  -24.6453   29.2184 C   0  0  0  0  0  0  0  0  0  0  0  0
    0.1130  -20.0965   30.0272 C   0  0  0  0  0  0  0  0  0  0  0  0
    1.2752  -20.4822   30.4849 C   0  0  0  0  0  0  0  0  0  0  0  0
    2.1782  -19.6802   31.1997 C   0  0  0  0  0  0  0  0  0  0  0  0
    2.9853  -20.5176   32.0426 C   0  0  0  0  0  0  0  0  0  0  0  0
    4.2807  -20.4369   31.7534 C   0  0  0  0  0  0  0  0  0  0  0  0
    4.9674  -19.0942   30.8460 C   0  0  0  0  0  0  0  0  0  0  0  0
    4.0188  -17.8766   30.2857 C   0  0  0  0  0  0  0  0  0  0  0  0
    2.3426  -18.0941   30.6921 C   0  0  0  0  0  0  0  0  0  0  0  0
    1.1644  -17.5485   30.3280 O   0  0  0  0  0  0  0  0  0  0  0  0
    0.1838  -18.6807   30.3450 C   0  0  0  0  0  0  0  0  0  0  0  0
   -2.5640  -21.1092   30.8857 H   0  0  0  0  0  0  0  0  0  0  0  0
   -4.2050  -23.2293   30.7549 H   0  0  0  0  0  0  0  0  0  0  0  0
   -3.6351  -24.1331   29.8251 H   0  0  0  0  0  0  0  0  0  0  0  0
   -4.8776  -22.5626   27.4285 H   0  0  0  0  0  0  0  0  0  0  0  0
   -4.7602  -24.2563   27.5506 H   0  0  0  0  0  0  0  0  0  0  0  0
   -7.1471  -21.9059   27.7126 H   0  0  0  0  0  0  0  0  0  0  0  0
   -7.2159  -23.2158   26.6158 H   0  0  0  0  0  0  0  0  0  0  0  0
  -10.2012  -21.6308   28.2024 H   0  0  0  0  0  0  0  0  0  0  0  0
  -10.6316  -23.0904   27.1908 H   0  0  0  0  0  0  0  0  0  0  0  0
  -12.0671  -23.8850   28.6983 H   0  0  0  0  0  0  0  0  0  0  0  0
  -12.2066  -22.1638   29.0050 H   0  0  0  0  0  0  0  0  0  0  0  0
  -10.5944  -22.3716   30.8500 H   0  0  0  0  0  0  0  0  0  0  0  0
  -11.9621  -21.1394   31.5505 H   0  0  0  0  0  0  0  0  0  0  0  0
  -13.4665  -21.8426   30.9341 H   0  0  0  0  0  0  0  0  0  0  0  0
  -12.6950  -20.9576   33.6799 H   0  0  0  0  0  0  0  0  0  0  0  0
  -14.2613  -20.8779   32.8628 H   0  0  0  0  0  0  0  0  0  0  0  0
  -14.6636  -23.2111   33.2265 H   0  0  0  0  0  0  0  0  0  0  0  0
  -14.4192  -22.4641   34.6720 H   0  0  0  0  0  0  0  0  0  0  0  0
  -13.0071  -24.6468   34.2336 H   0  0  0  0  0  0  0  0  0  0  0  0
  -12.1694  -23.2927   34.9370 H   0  0  0  0  0  0  0  0  0  0  0  0
  -11.2386  -24.6948   32.8760 H   0  0  0  0  0  0  0  0  0  0  0  0
  -10.7662  -23.0329   33.1863 H   0  0  0  0  0  0  0  0  0  0  0  0
  -10.8740  -25.4330   30.5549 H   0  0  0  0  0  0  0  0  0  0  0  0
   -9.5864  -24.5689   31.3842 H   0  0  0  0  0  0  0  0  0  0  0  0
   -8.5005  -25.2522   29.4754 H   0  0  0  0  0  0  0  0  0  0  0  0
   -9.9687  -25.2348   28.5186 H   0  0  0  0  0  0  0  0  0  0  0  0
    1.8150  -21.2854   30.0667 H   0  0  0  0  0  0  0  0  0  0  0  0
    2.6461  -21.1296   32.8346 H   0  0  0  0  0  0  0  0  0  0  0  0
    4.7922  -21.3885   31.8856 H   0  0  0  0  0  0  0  0  0  0  0  0
    6.0129  -19.2330   30.5846 H   0  0  0  0  0  0  0  0  0  0  0  0
    4.3043  -17.1411   29.5804 H   0  0  0  0  0  0  0  0  0  0  0  0
   -0.5516  -18.5275   31.0976 H   0  0  0  0  0  0  0  0  0  0  0  0
    0.0438  -18.7239   29.2917 H   0  0  0  0  0  0  0  0  0  0  0  0
  1  2  2  0
  2  3  1  0
  3  4  1  0
  4  5  1  0
  5  6  1  0
  6  7  1  0
  7  8  1  0
  8  9  1  0
  9 10  1  0
 10 11  1  0
 11 12  1  0
 12 13  1  0
 13 14  1  0
 14 15  1  0
 15 16  1  0
 10 17  1  0
 17 18  1  0
  2 19  1  0
 19 20  2  0
 20 21  1  0
 21 22  2  0
 22 23  1  0
 23 24  2  0
 24 25  1  0
 25 26  2  0
 26 27  1  0
 27 28  1  0
 18  7  1  0
 28 19  1  0
 16 11  1  0
 26 21  1  0
  3 29  1  0
  4 30  1  0
  4 31  1  0
  5 32  1  0
  5 33  1  0
  6 34  1  0
  6 35  1  0
  8 36  1  0
  8 37  1  0
  9 38  1  0
  9 39  1  0
 10 40  1  0
 12 41  1  0
 12 42  1  0
 13 43  1  0
 13 44  1  0
 14 45  1  0
 14 46  1  0
 15 47  1  0
 15 48  1  0
 16 49  1  0
 16 50  1  0
 17 51  1  0
 17 52  1  0
 18 53  1  0
 18 54  1  0
 20 55  1  0
 22 56  1  0
 23 57  1  0
 24 58  1  0
 25 59  1  0
 28 60  1  0
 28 61  1  0
M  END
>  <Energy>  (156) 
765.42342874569476

>  <compound_id>  (156) 
11496

>  <target_id>  (156) 
1

>  <reference_id>  (156) 
46

>  <inspiration_ids>  (156) 
[89, 46]

>  <energy_score>  (156) 
701.6005952914782

>  <distance_score>  (156) 
3.8422420733900617

>  <path>  (156) 
/opt/xchem-fragalysis-2/maxwin/BulkDock/SCRATCH/511016/C11496-P46/C11496-P46.minimised.mol

>  <scratch_subdir>  (156) 
/opt/xchem-fragalysis-2/maxwin/BulkDock/SCRATCH/511016/C11496-P46

>  <fragmenstein_runtime>  (156) 
33.755122423172

>  <fragmenstein_outcome>  (156) 
too moved

>  <fragmenstein_mode>  (156) 
expansion

>  <fragmenstein_error>  (156) 


$$$$
C4827-P94
     RDKit          3D

 42 44  0  0  0  0  0  0  0  0999 V2000
  -11.7343  -20.9639   29.4967 C   0  0  0  0  0  0  0  0  0  0  0  0
  -10.0897  -20.5423   29.3361 C   0  0  0  0  0  0  0  0  0  0  0  0
   -8.6916  -19.4716   28.2865 N   0  0  0  0  0  0  0  0  0  0  0  0
   -7.0551  -18.8968   27.4262 C   0  0  0  0  0  0  0  0  0  0  0  0
   -5.2864  -18.3086   27.6700 N   0  0  0  0  0  0  0  0  0  0  0  0
   -4.0497  -17.0381   26.6626 C   0  0  0  0  0  0  0  0  0  0  0  0
   -4.3369  -16.1046   25.4175 O   0  0  0  0  0  0  0  0  0  0  0  0
   -2.5367  -16.9785   26.9690 C   0  0  0  0  0  0  0  0  0  0  0  0
   -2.3687  -16.4762   25.0835 O   0  0  0  0  0  0  0  0  0  0  0  0
   -1.5325  -15.2236   23.9605 C   0  0  0  0  0  0  0  0  0  0  0  0
   -0.7130  -14.9063   22.0716 C   0  0  0  0  0  0  0  0  0  0  0  0
   -0.3118  -13.7519   20.7174 C   0  0  0  0  0  0  0  0  0  0  0  0
   -0.4517  -12.3708   20.4629 C   0  0  0  0  0  0  0  0  0  0  0  0
    0.2677  -11.8983   19.3083 C   0  0  0  0  0  0  0  0  0  0  0  0
    0.8780  -12.9217   18.6294 C   0  0  0  0  0  0  0  0  0  0  0  0
    0.5416  -14.4527   19.3272 S   0  0  0  0  0  0  0  0  0  0  0  0
   -6.7330  -20.2899   27.2168 N   0  0  0  0  0  0  0  0  0  0  0  0
   -7.7420  -21.3371   27.3741 C   0  0  0  0  0  0  0  0  0  0  0  0
   -7.7298  -22.7178   27.5415 C   0  0  0  0  0  0  0  0  0  0  0  0
   -9.0908  -23.6066   27.8926 C   0  0  0  0  0  0  0  0  0  0  0  0
  -10.4377  -23.2894   27.7769 C   0  0  0  0  0  0  0  0  0  0  0  0
  -10.6349  -21.9471   27.5538 C   0  0  0  0  0  0  0  0  0  0  0  0
   -9.2905  -20.8523   27.5560 C   0  0  0  0  0  0  0  0  0  0  0  0
  -12.0136  -21.9938   29.2521 H   0  0  0  0  0  0  0  0  0  0  0  0
  -11.8942  -21.0694   30.5800 H   0  0  0  0  0  0  0  0  0  0  0  0
  -12.4399  -20.3016   29.0383 H   0  0  0  0  0  0  0  0  0  0  0  0
  -10.0580  -20.4753   30.4350 H   0  0  0  0  0  0  0  0  0  0  0  0
   -9.8607  -21.5821   29.3164 H   0  0  0  0  0  0  0  0  0  0  0  0
   -4.8246  -18.7576   28.2702 H   0  0  0  0  0  0  0  0  0  0  0  0
   -2.1586  -16.0637   27.4236 H   0  0  0  0  0  0  0  0  0  0  0  0
   -1.9383  -17.8716   26.8242 H   0  0  0  0  0  0  0  0  0  0  0  0
   -2.5970  -15.1864   23.6272 H   0  0  0  0  0  0  0  0  0  0  0  0
   -1.1667  -14.5092   24.6797 H   0  0  0  0  0  0  0  0  0  0  0  0
   -1.6550  -14.8314   21.4347 H   0  0  0  0  0  0  0  0  0  0  0  0
   -0.1736  -15.7850   21.6723 H   0  0  0  0  0  0  0  0  0  0  0  0
   -0.9528  -11.6728   21.1153 H   0  0  0  0  0  0  0  0  0  0  0  0
    0.3231  -10.8594   19.0083 H   0  0  0  0  0  0  0  0  0  0  0  0
    1.4737  -12.8625   17.7297 H   0  0  0  0  0  0  0  0  0  0  0  0
   -6.7055  -23.0782   27.5061 H   0  0  0  0  0  0  0  0  0  0  0  0
   -8.9866  -24.6263   28.2994 H   0  0  0  0  0  0  0  0  0  0  0  0
  -11.2462  -23.9974   27.8934 H   0  0  0  0  0  0  0  0  0  0  0  0
  -11.5987  -21.5513   27.2817 H   0  0  0  0  0  0  0  0  0  0  0  0
  1  2  1  0
  2  3  1  0
  3  4  1  0
  4  5  1  0
  5  6  1  0
  6  7  2  0
  6  8  1  0
  8  9  1  0
  9 10  1  0
 10 11  1  0
 11 12  1  0
 12 13  2  0
 13 14  1  0
 14 15  2  0
 15 16  1  0
  4 17  2  0
 17 18  1  0
 18 19  2  0
 19 20  1  0
 20 21  2  0
 21 22  1  0
 22 23  2  0
 23  3  1  0
 16 12  1  0
 23 18  1  0
  1 24  1  0
  1 25  1  0
  1 26  1  0
  2 27  1  0
  2 28  1  0
  5 29  1  0
  8 30  1  0
  8 31  1  0
 10 32  1  0
 10 33  1  0
 11 34  1  0
 11 35  1  0
 13 36  1  0
 14 37  1  0
 15 38  1  0
 19 39  1  0
 20 40  1  0
 21 41  1  0
 22 42  1  0
M  END
>  <Energy>  (157) 
1404.418761575143

>  <compound_id>  (157) 
4827

>  <target_id>  (157) 
1

>  <reference_id>  (157) 
94

>  <inspiration_ids>  (157) 
[94, 66]

>  <energy_score>  (157) 
1303.1279843304135

>  <distance_score>  (157) 
13.493039933811733

>  <path>  (157) 
/opt/xchem-fragalysis-2/maxwin/BulkDock/SCRATCH/511016/C4827-P94/C4827-P94.minimised.mol

>  <scratch_subdir>  (157) 
/opt/xchem-fragalysis-2/maxwin/BulkDock/SCRATCH/511016/C4827-P94

>  <fragmenstein_runtime>  (157) 
25.062194347381592

>  <fragmenstein_outcome>  (157) 
too moved

>  <fragmenstein_mode>  (157) 
expansion

>  <fragmenstein_error>  (157) 


$$$$
C4827-P66
     RDKit          3D

 42 44  0  0  0  0  0  0  0  0999 V2000
  -11.3798  -24.5132   27.6136 C   0  0  0  0  0  0  0  0  0  0  0  0
  -10.7254  -23.1274   27.6073 C   0  0  0  0  0  0  0  0  0  0  0  0
  -10.7058  -22.1581   28.6750 N   0  0  0  0  0  0  0  0  0  0  0  0
  -10.1118  -20.7217   28.8706 C   0  0  0  0  0  0  0  0  0  0  0  0
   -8.7170  -19.4069   28.3696 N   0  0  0  0  0  0  0  0  0  0  0  0
   -7.0400  -19.6446   27.6743 C   0  0  0  0  0  0  0  0  0  0  0  0
   -6.5887  -20.7340   27.3280 O   0  0  0  0  0  0  0  0  0  0  0  0
   -5.6090  -18.2380   27.5294 C   0  0  0  0  0  0  0  0  0  0  0  0
   -3.8803  -17.2058   27.2884 O   0  0  0  0  0  0  0  0  0  0  0  0
   -2.6895  -16.7818   25.7637 C   0  0  0  0  0  0  0  0  0  0  0  0
   -2.0087  -15.3995   24.3534 C   0  0  0  0  0  0  0  0  0  0  0  0
   -0.9772  -14.8892   22.6206 C   0  0  0  0  0  0  0  0  0  0  0  0
   -0.1542  -15.5468   21.3898 C   0  0  0  0  0  0  0  0  0  0  0  0
    0.2996  -14.7673   20.2433 C   0  0  0  0  0  0  0  0  0  0  0  0
   -0.5574  -13.7150   20.1001 C   0  0  0  0  0  0  0  0  0  0  0  0
   -1.9945  -14.5724   20.6366 S   0  0  0  0  0  0  0  0  0  0  0  0
  -10.8612  -20.4240   29.9509 N   0  0  0  0  0  0  0  0  0  0  0  0
  -11.3343  -21.4830   30.6745 C   0  0  0  0  0  0  0  0  0  0  0  0
  -11.6650  -21.5532   32.0395 C   0  0  0  0  0  0  0  0  0  0  0  0
  -11.8323  -22.7924   32.6422 C   0  0  0  0  0  0  0  0  0  0  0  0
  -11.6642  -23.9367   31.8906 C   0  0  0  0  0  0  0  0  0  0  0  0
  -11.4544  -23.8697   30.5100 C   0  0  0  0  0  0  0  0  0  0  0  0
  -11.2947  -22.6014   29.9049 C   0  0  0  0  0  0  0  0  0  0  0  0
  -11.4826  -24.8595   26.5775 H   0  0  0  0  0  0  0  0  0  0  0  0
  -12.3622  -24.5577   28.0613 H   0  0  0  0  0  0  0  0  0  0  0  0
  -10.7308  -25.2518   28.0968 H   0  0  0  0  0  0  0  0  0  0  0  0
  -11.2387  -22.6089   26.8004 H   0  0  0  0  0  0  0  0  0  0  0  0
   -9.6830  -23.4129   27.4736 H   0  0  0  0  0  0  0  0  0  0  0  0
   -8.8872  -18.3827   28.4974 H   0  0  0  0  0  0  0  0  0  0  0  0
   -5.8340  -17.9576   28.5840 H   0  0  0  0  0  0  0  0  0  0  0  0
   -5.0809  -19.0908   27.3465 H   0  0  0  0  0  0  0  0  0  0  0  0
   -2.2351  -17.7611   25.6419 H   0  0  0  0  0  0  0  0  0  0  0  0
   -3.4867  -16.3319   25.2630 H   0  0  0  0  0  0  0  0  0  0  0  0
   -1.7865  -14.5972   25.0701 H   0  0  0  0  0  0  0  0  0  0  0  0
   -3.0096  -15.2711   23.8817 H   0  0  0  0  0  0  0  0  0  0  0  0
    0.0084  -16.6186   21.3639 H   0  0  0  0  0  0  0  0  0  0  0  0
    1.0675  -15.0548   19.5382 H   0  0  0  0  0  0  0  0  0  0  0  0
   -0.5894  -12.9544   19.3339 H   0  0  0  0  0  0  0  0  0  0  0  0
  -11.6680  -20.6606   32.6543 H   0  0  0  0  0  0  0  0  0  0  0  0
  -12.0487  -22.8650   33.7049 H   0  0  0  0  0  0  0  0  0  0  0  0
  -11.7165  -24.9040   32.3860 H   0  0  0  0  0  0  0  0  0  0  0  0
  -11.2523  -24.8038   30.0107 H   0  0  0  0  0  0  0  0  0  0  0  0
  1  2  1  0
  2  3  1  0
  3  4  1  0
  4  5  1  0
  5  6  1  0
  6  7  2  0
  6  8  1  0
  8  9  1  0
  9 10  1  0
 10 11  1  0
 11 12  1  0
 12 13  2  0
 13 14  1  0
 14 15  2  0
 15 16  1  0
  4 17  2  0
 17 18  1  0
 18 19  2  0
 19 20  1  0
 20 21  2  0
 21 22  1  0
 22 23  2  0
 23  3  1  0
 16 12  1  0
 23 18  1  0
  1 24  1  0
  1 25  1  0
  1 26  1  0
  2 27  1  0
  2 28  1  0
  5 29  1  0
  8 30  1  0
  8 31  1  0
 10 32  1  0
 10 33  1  0
 11 34  1  0
 11 35  1  0
 13 36  1  0
 14 37  1  0
 15 38  1  0
 19 39  1  0
 20 40  1  0
 21 41  1  0
 22 42  1  0
M  END
>  <Energy>  (158) 
1013.1884023403821

>  <compound_id>  (158) 
4827

>  <target_id>  (158) 
1

>  <reference_id>  (158) 
66

>  <inspiration_ids>  (158) 
[94, 66]

>  <energy_score>  (158) 
911.8976250956405

>  <distance_score>  (158) 
14.658727141769297

>  <path>  (158) 
/opt/xchem-fragalysis-2/maxwin/BulkDock/SCRATCH/511016/C4827-P66/C4827-P66.minimised.mol

>  <scratch_subdir>  (158) 
/opt/xchem-fragalysis-2/maxwin/BulkDock/SCRATCH/511016/C4827-P66

>  <fragmenstein_runtime>  (158) 
18.907313108444214

>  <fragmenstein_outcome>  (158) 
too moved

>  <fragmenstein_mode>  (158) 
expansion

>  <fragmenstein_error>  (158) 


$$$$
C4828-P94
     RDKit          3D

 35 37  0  0  0  0  0  0  0  0999 V2000
   -1.1994  -15.4925   28.7174 O   0  0  0  0  0  0  0  0  0  0  0  0
   -1.9180  -15.6175   27.7387 C   0  0  0  0  0  0  0  0  0  0  0  0
   -2.9054  -16.9281   27.9277 C   0  0  0  0  0  0  0  0  0  0  0  0
   -2.6726  -17.7751   29.2297 C   0  0  0  0  0  0  0  0  0  0  0  0
   -3.6688  -17.6999   30.2941 N   0  0  0  0  0  0  0  0  0  0  0  0
   -4.2217  -16.5648   30.8140 C   0  0  0  0  0  0  0  0  0  0  0  0
   -5.1184  -16.8155   31.7357 N   0  0  0  0  0  0  0  0  0  0  0  0
   -4.8869  -18.1171   32.0652 C   0  0  0  0  0  0  0  0  0  0  0  0
   -5.3431  -18.8113   33.1836 C   0  0  0  0  0  0  0  0  0  0  0  0
   -4.7728  -20.0473   33.4493 C   0  0  0  0  0  0  0  0  0  0  0  0
   -3.8397  -20.6158   32.5773 C   0  0  0  0  0  0  0  0  0  0  0  0
   -3.4578  -19.9839   31.3936 C   0  0  0  0  0  0  0  0  0  0  0  0
   -3.9670  -18.7024   31.1941 C   0  0  0  0  0  0  0  0  0  0  0  0
   -1.9329  -14.7435   26.2522 N   0  0  0  0  0  0  0  0  0  0  0  0
   -0.8597  -13.5213   25.6575 N   0  0  0  0  0  0  0  0  0  0  0  0
    0.7550  -13.4310   25.9151 C   0  0  0  0  0  0  0  0  0  0  0  0
    1.9697  -13.1700   24.8117 C   0  0  0  0  0  0  0  0  0  0  0  0
    3.2915  -13.8376   24.6817 C   0  0  0  0  0  0  0  0  0  0  0  0
    3.7716  -12.9091   23.9816 C   0  0  0  0  0  0  0  0  0  0  0  0
    3.3059  -12.5727   22.7969 C   0  0  0  0  0  0  0  0  0  0  0  0
    1.9811  -12.1339   23.5495 S   0  0  0  0  0  0  0  0  0  0  0  0
   -3.9764  -16.7858   27.9263 H   0  0  0  0  0  0  0  0  0  0  0  0
   -2.6564  -17.5763   27.0765 H   0  0  0  0  0  0  0  0  0  0  0  0
   -1.7040  -17.5696   29.6963 H   0  0  0  0  0  0  0  0  0  0  0  0
   -2.6606  -18.8267   28.9166 H   0  0  0  0  0  0  0  0  0  0  0  0
   -3.9038  -15.5738   30.5343 H   0  0  0  0  0  0  0  0  0  0  0  0
   -6.0589  -18.3585   33.8578 H   0  0  0  0  0  0  0  0  0  0  0  0
   -5.0589  -20.5362   34.3721 H   0  0  0  0  0  0  0  0  0  0  0  0
   -3.3822  -21.5679   32.8264 H   0  0  0  0  0  0  0  0  0  0  0  0
   -2.7215  -20.4264   30.7353 H   0  0  0  0  0  0  0  0  0  0  0  0
   -2.5926  -15.1482   25.6188 H   0  0  0  0  0  0  0  0  0  0  0  0
    1.1847  -14.0390   26.6643 H   0  0  0  0  0  0  0  0  0  0  0  0
    3.8099  -14.3886   25.4715 H   0  0  0  0  0  0  0  0  0  0  0  0
    4.6407  -12.4731   24.4805 H   0  0  0  0  0  0  0  0  0  0  0  0
    3.8333  -12.1884   21.9539 H   0  0  0  0  0  0  0  0  0  0  0  0
  1  2  2  0
  2  3  1  0
  3  4  1  0
  4  5  1  0
  5  6  1  0
  6  7  2  0
  7  8  1  0
  8  9  2  0
  9 10  1  0
 10 11  2  0
 11 12  1  0
 12 13  2  0
  2 14  1  0
 14 15  1  0
 15 16  2  3
 16 17  1  0
 17 18  2  0
 18 19  1  0
 19 20  2  0
 20 21  1  0
 13  5  1  0
 21 17  1  0
 13  8  1  0
  3 22  1  0
  3 23  1  0
  4 24  1  0
  4 25  1  0
  6 26  1  0
  9 27  1  0
 10 28  1  0
 11 29  1  0
 12 30  1  0
 14 31  1  0
 16 32  1  0
 18 33  1  0
 19 34  1  0
 20 35  1  0
M  END
>  <Energy>  (159) 
334.62517475382549

>  <compound_id>  (159) 
4828

>  <target_id>  (159) 
1

>  <reference_id>  (159) 
94

>  <inspiration_ids>  (159) 
[94, 66]

>  <energy_score>  (159) 
238.799619511743

>  <distance_score>  (159) 
14.702997343548853

>  <path>  (159) 
/opt/xchem-fragalysis-2/maxwin/BulkDock/SCRATCH/511016/C4828-P94/C4828-P94.minimised.mol

>  <scratch_subdir>  (159) 
/opt/xchem-fragalysis-2/maxwin/BulkDock/SCRATCH/511016/C4828-P94

>  <fragmenstein_runtime>  (159) 
19.326659679412842

>  <fragmenstein_outcome>  (159) 
too moved

>  <fragmenstein_mode>  (159) 
expansion

>  <fragmenstein_error>  (159) 


$$$$
C4828-P66
     RDKit          3D

 35 37  0  0  0  0  0  0  0  0999 V2000
   -2.7245  -17.1370   26.6547 O   0  0  0  0  0  0  0  0  0  0  0  0
   -2.3638  -16.3464   27.5195 C   0  0  0  0  0  0  0  0  0  0  0  0
   -2.0849  -16.8228   28.9516 C   0  0  0  0  0  0  0  0  0  0  0  0
   -3.3155  -17.5572   29.5368 C   0  0  0  0  0  0  0  0  0  0  0  0
   -3.8994  -16.9839   30.7368 N   0  0  0  0  0  0  0  0  0  0  0  0
   -3.9533  -15.6685   31.0901 C   0  0  0  0  0  0  0  0  0  0  0  0
   -4.8146  -15.4443   32.0498 N   0  0  0  0  0  0  0  0  0  0  0  0
   -5.2245  -16.6819   32.4377 C   0  0  0  0  0  0  0  0  0  0  0  0
   -6.1246  -17.0055   33.4456 C   0  0  0  0  0  0  0  0  0  0  0  0
   -6.2963  -18.3458   33.7229 C   0  0  0  0  0  0  0  0  0  0  0  0
   -5.5720  -19.3241   33.0273 C   0  0  0  0  0  0  0  0  0  0  0  0
   -4.7326  -19.0249   31.9646 C   0  0  0  0  0  0  0  0  0  0  0  0
   -4.5910  -17.6754   31.6952 C   0  0  0  0  0  0  0  0  0  0  0  0
   -2.2026  -14.7448   27.4711 N   0  0  0  0  0  0  0  0  0  0  0  0
   -2.6303  -13.4807   26.1037 N   0  0  0  0  0  0  0  0  0  0  0  0
   -2.3274  -11.7977   26.0403 C   0  0  0  0  0  0  0  0  0  0  0  0
   -1.5511  -10.4776   27.3531 C   0  0  0  0  0  0  0  0  0  0  0  0
   -0.2865  -10.3095   28.1971 C   0  0  0  0  0  0  0  0  0  0  0  0
   -0.4977   -9.4629   29.3033 C   0  0  0  0  0  0  0  0  0  0  0  0
   -0.6578   -8.2253   28.7263 C   0  0  0  0  0  0  0  0  0  0  0  0
   -0.4839   -8.5212   27.0460 S   0  0  0  0  0  0  0  0  0  0  0  0
   -1.2541  -17.5350   28.8655 H   0  0  0  0  0  0  0  0  0  0  0  0
   -1.7213  -16.0169   29.5914 H   0  0  0  0  0  0  0  0  0  0  0  0
   -4.1348  -17.6314   28.8123 H   0  0  0  0  0  0  0  0  0  0  0  0
   -3.0044  -18.5765   29.7922 H   0  0  0  0  0  0  0  0  0  0  0  0
   -3.3836  -14.8879   30.6062 H   0  0  0  0  0  0  0  0  0  0  0  0
   -6.6582  -16.2355   33.9872 H   0  0  0  0  0  0  0  0  0  0  0  0
   -7.0527  -18.6195   34.4498 H   0  0  0  0  0  0  0  0  0  0  0  0
   -5.7717  -20.3650   33.2249 H   0  0  0  0  0  0  0  0  0  0  0  0
   -4.2560  -19.8018   31.3836 H   0  0  0  0  0  0  0  0  0  0  0  0
   -1.8774  -14.4045   28.3853 H   0  0  0  0  0  0  0  0  0  0  0  0
   -2.8697  -11.7381   25.1245 H   0  0  0  0  0  0  0  0  0  0  0  0
    0.5705  -10.9465   28.1433 H   0  0  0  0  0  0  0  0  0  0  0  0
   -0.0990   -9.5682   30.3057 H   0  0  0  0  0  0  0  0  0  0  0  0
   -0.5871   -7.2392   29.1665 H   0  0  0  0  0  0  0  0  0  0  0  0
  1  2  2  0
  2  3  1  0
  3  4  1  0
  4  5  1  0
  5  6  1  0
  6  7  2  0
  7  8  1  0
  8  9  2  0
  9 10  1  0
 10 11  2  0
 11 12  1  0
 12 13  2  0
  2 14  1  0
 14 15  1  0
 15 16  2  3
 16 17  1  0
 17 18  2  0
 18 19  1  0
 19 20  2  0
 20 21  1  0
 13  5  1  0
 21 17  1  0
 13  8  1  0
  3 22  1  0
  3 23  1  0
  4 24  1  0
  4 25  1  0
  6 26  1  0
  9 27  1  0
 10 28  1  0
 11 29  1  0
 12 30  1  0
 14 31  1  0
 16 32  1  0
 18 33  1  0
 19 34  1  0
 20 35  1  0
M  END
>  <Energy>  (160) 
469.0645842787452

>  <compound_id>  (160) 
4828

>  <target_id>  (160) 
1

>  <reference_id>  (160) 
66

>  <inspiration_ids>  (160) 
[94, 66]

>  <energy_score>  (160) 
373.2390290366508

>  <distance_score>  (160) 
16.04864819259475

>  <path>  (160) 
/opt/xchem-fragalysis-2/maxwin/BulkDock/SCRATCH/511016/C4828-P66/C4828-P66.minimised.mol

>  <scratch_subdir>  (160) 
/opt/xchem-fragalysis-2/maxwin/BulkDock/SCRATCH/511016/C4828-P66

>  <fragmenstein_runtime>  (160) 
26.880425453186035

>  <fragmenstein_outcome>  (160) 
too moved

>  <fragmenstein_mode>  (160) 
expansion

>  <fragmenstein_error>  (160) 


$$$$
C4829-P94
     RDKit          3D

 32 34  0  0  0  0  0  0  0  0999 V2000
    5.3771  -18.9753   27.7194 C   0  0  0  0  0  0  0  0  0  0  0  0
    3.9826  -19.4157   27.6647 N   0  0  0  0  0  0  0  0  0  0  0  0
    3.8426  -18.0913   26.7783 C   0  0  0  0  0  0  0  0  0  0  0  0
    4.9411  -17.1986   25.9476 C   0  0  0  0  0  0  0  0  0  0  0  0
    5.4289  -15.9250   26.2678 C   0  0  0  0  0  0  0  0  0  0  0  0
    6.1835  -15.2992   25.2183 C   0  0  0  0  0  0  0  0  0  0  0  0
    6.2870  -16.1144   24.1173 C   0  0  0  0  0  0  0  0  0  0  0  0
    5.4863  -17.6182   24.3567 S   0  0  0  0  0  0  0  0  0  0  0  0
    2.9526  -19.4429   28.7010 C   0  0  0  0  0  0  0  0  0  0  0  0
    2.9735  -19.0240   29.8325 O   0  0  0  0  0  0  0  0  0  0  0  0
    1.6545  -20.1974   28.4255 C   0  0  0  0  0  0  0  0  0  0  0  0
    1.1869  -20.8297   27.3541 N   0  0  0  0  0  0  0  0  0  0  0  0
    0.0665  -21.5723   27.7746 C   0  0  0  0  0  0  0  0  0  0  0  0
   -0.7907  -22.4457   27.0680 C   0  0  0  0  0  0  0  0  0  0  0  0
   -1.8851  -23.0404   27.7203 C   0  0  0  0  0  0  0  0  0  0  0  0
   -2.1095  -22.8029   29.0736 C   0  0  0  0  0  0  0  0  0  0  0  0
   -1.2622  -21.9624   29.8054 C   0  0  0  0  0  0  0  0  0  0  0  0
   -0.1997  -21.3526   29.1148 C   0  0  0  0  0  0  0  0  0  0  0  0
    0.7749  -20.4596   29.4897 N   0  0  0  0  0  0  0  0  0  0  0  0
    5.5529  -18.0220   28.2395 H   0  0  0  0  0  0  0  0  0  0  0  0
    5.9476  -19.1882   26.8089 H   0  0  0  0  0  0  0  0  0  0  0  0
    5.8233  -19.6838   28.4351 H   0  0  0  0  0  0  0  0  0  0  0  0
    3.3251  -17.3671   27.4254 H   0  0  0  0  0  0  0  0  0  0  0  0
    3.1014  -18.3981   26.0278 H   0  0  0  0  0  0  0  0  0  0  0  0
    5.1998  -15.4386   27.2102 H   0  0  0  0  0  0  0  0  0  0  0  0
    6.6126  -14.3066   25.2770 H   0  0  0  0  0  0  0  0  0  0  0  0
    6.7916  -15.9134   23.1820 H   0  0  0  0  0  0  0  0  0  0  0  0
   -0.6064  -22.6371   26.0148 H   0  0  0  0  0  0  0  0  0  0  0  0
   -2.5480  -23.6951   27.1609 H   0  0  0  0  0  0  0  0  0  0  0  0
   -2.9428  -23.2805   29.5766 H   0  0  0  0  0  0  0  0  0  0  0  0
   -1.4381  -21.7727   30.8598 H   0  0  0  0  0  0  0  0  0  0  0  0
    0.9339  -20.1021   30.4208 H   0  0  0  0  0  0  0  0  0  0  0  0
  1  2  1  0
  2  3  1  0
  3  4  1  0
  4  5  2  0
  5  6  1  0
  6  7  2  0
  7  8  1  0
  2  9  1  0
  9 10  2  0
  9 11  1  0
 11 12  2  0
 12 13  1  0
 13 14  2  0
 14 15  1  0
 15 16  2  0
 16 17  1  0
 17 18  2  0
 18 19  1  0
  8  4  1  0
 19 11  1  0
 18 13  1  0
  1 20  1  0
  1 21  1  0
  1 22  1  0
  3 23  1  0
  3 24  1  0
  5 25  1  0
  6 26  1  0
  7 27  1  0
 14 28  1  0
 15 29  1  0
 16 30  1  0
 17 31  1  0
 19 32  1  0
M  END
>  <Energy>  (161) 
119.44989252272983

>  <compound_id>  (161) 
4829

>  <target_id>  (161) 
1

>  <reference_id>  (161) 
94

>  <inspiration_ids>  (161) 
[94, 66]

>  <energy_score>  (161) 
70.33505246040158

>  <distance_score>  (161) 
16.574879898267138

>  <path>  (161) 
/opt/xchem-fragalysis-2/maxwin/BulkDock/SCRATCH/511016/C4829-P94/C4829-P94.minimised.mol

>  <scratch_subdir>  (161) 
/opt/xchem-fragalysis-2/maxwin/BulkDock/SCRATCH/511016/C4829-P94

>  <fragmenstein_runtime>  (161) 
22.543351411819458

>  <fragmenstein_outcome>  (161) 
too moved

>  <fragmenstein_mode>  (161) 
expansion

>  <fragmenstein_error>  (161) 


$$$$
C4829-P66
     RDKit          3D

 32 34  0  0  0  0  0  0  0  0999 V2000
    5.6178  -19.5021   26.8708 C   0  0  0  0  0  0  0  0  0  0  0  0
    4.1746  -19.7232   27.0427 N   0  0  0  0  0  0  0  0  0  0  0  0
    4.1288  -18.1656   26.6761 C   0  0  0  0  0  0  0  0  0  0  0  0
    5.0572  -17.2767   25.6701 C   0  0  0  0  0  0  0  0  0  0  0  0
    5.6643  -16.0485   25.9662 C   0  0  0  0  0  0  0  0  0  0  0  0
    6.2619  -15.3918   24.8378 C   0  0  0  0  0  0  0  0  0  0  0  0
    6.1227  -16.1364   23.6921 C   0  0  0  0  0  0  0  0  0  0  0  0
    5.2817  -17.6077   23.9849 S   0  0  0  0  0  0  0  0  0  0  0  0
    3.3875  -19.9839   28.2531 C   0  0  0  0  0  0  0  0  0  0  0  0
    3.7200  -19.9901   29.4098 O   0  0  0  0  0  0  0  0  0  0  0  0
    1.9321  -20.4288   28.0701 C   0  0  0  0  0  0  0  0  0  0  0  0
    1.0496  -20.4051   29.0823 N   0  0  0  0  0  0  0  0  0  0  0  0
    0.0178  -21.2759   28.7831 C   0  0  0  0  0  0  0  0  0  0  0  0
   -1.0933  -21.7020   29.5415 C   0  0  0  0  0  0  0  0  0  0  0  0
   -2.0485  -22.5538   28.9659 C   0  0  0  0  0  0  0  0  0  0  0  0
   -1.8837  -23.0087   27.6611 C   0  0  0  0  0  0  0  0  0  0  0  0
   -0.7486  -22.6508   26.9144 C   0  0  0  0  0  0  0  0  0  0  0  0
    0.1872  -21.7806   27.5068 C   0  0  0  0  0  0  0  0  0  0  0  0
    1.3869  -21.2226   27.0693 N   0  0  0  0  0  0  0  0  0  0  0  0
    5.9470  -19.5428   25.8301 H   0  0  0  0  0  0  0  0  0  0  0  0
    6.0839  -18.7513   27.5274 H   0  0  0  0  0  0  0  0  0  0  0  0
    6.0497  -20.4293   27.2798 H   0  0  0  0  0  0  0  0  0  0  0  0
    4.1110  -17.6220   27.6362 H   0  0  0  0  0  0  0  0  0  0  0  0
    3.1133  -18.0639   26.2797 H   0  0  0  0  0  0  0  0  0  0  0  0
    5.6363  -15.6151   26.9610 H   0  0  0  0  0  0  0  0  0  0  0  0
    6.7545  -14.4278   24.8761 H   0  0  0  0  0  0  0  0  0  0  0  0
    6.4679  -15.8981   22.6950 H   0  0  0  0  0  0  0  0  0  0  0  0
   -1.2070  -21.3553   30.5635 H   0  0  0  0  0  0  0  0  0  0  0  0
   -2.9126  -22.8553   29.5490 H   0  0  0  0  0  0  0  0  0  0  0  0
   -2.6309  -23.6618   27.2164 H   0  0  0  0  0  0  0  0  0  0  0  0
   -0.6137  -23.0150   25.9003 H   0  0  0  0  0  0  0  0  0  0  0  0
    1.8571  -21.4600   26.2086 H   0  0  0  0  0  0  0  0  0  0  0  0
  1  2  1  0
  2  3  1  0
  3  4  1  0
  4  5  2  0
  5  6  1  0
  6  7  2  0
  7  8  1  0
  2  9  1  0
  9 10  2  0
  9 11  1  0
 11 12  2  0
 12 13  1  0
 13 14  2  0
 14 15  1  0
 15 16  2  0
 16 17  1  0
 17 18  2  0
 18 19  1  0
  8  4  1  0
 19 11  1  0
 18 13  1  0
  1 20  1  0
  1 21  1  0
  1 22  1  0
  3 23  1  0
  3 24  1  0
  5 25  1  0
  6 26  1  0
  7 27  1  0
 14 28  1  0
 15 29  1  0
 16 30  1  0
 17 31  1  0
 19 32  1  0
M  END
>  <Energy>  (162) 
125.31377492489754

>  <compound_id>  (162) 
4829

>  <target_id>  (162) 
1

>  <reference_id>  (162) 
66

>  <inspiration_ids>  (162) 
[94, 66]

>  <energy_score>  (162) 
76.19893486256927

>  <distance_score>  (162) 
16.684147223558092

>  <path>  (162) 
/opt/xchem-fragalysis-2/maxwin/BulkDock/SCRATCH/511016/C4829-P66/C4829-P66.minimised.mol

>  <scratch_subdir>  (162) 
/opt/xchem-fragalysis-2/maxwin/BulkDock/SCRATCH/511016/C4829-P66

>  <fragmenstein_runtime>  (162) 
15.807506799697876

>  <fragmenstein_outcome>  (162) 
too moved

>  <fragmenstein_mode>  (162) 
expansion

>  <fragmenstein_error>  (162) 


$$$$
C4830-P94
     RDKit          3D

 39 41  0  0  0  0  0  0  0  0999 V2000
    3.2986  -17.5457   27.2950 O   0  0  0  0  0  0  0  0  0  0  0  0
    3.0453  -16.4372   27.6116 C   0  0  0  0  0  0  0  0  0  0  0  0
    3.9025  -14.7348   27.0531 C   0  0  0  0  0  0  0  0  0  0  0  0
    5.1370  -13.4285   26.7226 N   0  0  0  0  0  0  0  0  0  0  0  0
    5.6939  -12.3662   27.5944 C   0  0  0  0  0  0  0  0  0  0  0  0
    5.4114  -12.0514   28.7167 O   0  0  0  0  0  0  0  0  0  0  0  0
    6.7220  -11.5178   26.8575 C   0  0  0  0  0  0  0  0  0  0  0  0
    7.0695  -10.1892   27.1083 C   0  0  0  0  0  0  0  0  0  0  0  0
    7.9396   -9.6134   26.1215 C   0  0  0  0  0  0  0  0  0  0  0  0
    8.3002  -10.5333   25.1670 C   0  0  0  0  0  0  0  0  0  0  0  0
    7.6173  -12.0693   25.4913 S   0  0  0  0  0  0  0  0  0  0  0  0
    2.0784  -15.9114   28.6031 N   0  0  0  0  0  0  0  0  0  0  0  0
    0.9854  -16.7447   29.8360 C   0  0  0  0  0  0  0  0  0  0  0  0
   -0.3467  -15.6424   30.8313 C   0  0  0  0  0  0  0  0  0  0  0  0
   -1.8375  -15.8403   31.9790 C   0  0  0  0  0  0  0  0  0  0  0  0
   -2.7516  -16.8371   32.0798 N   0  0  0  0  0  0  0  0  0  0  0  0
   -3.5179  -16.8123   33.2946 C   0  0  0  0  0  0  0  0  0  0  0  0
   -4.5444  -17.6590   33.7859 C   0  0  0  0  0  0  0  0  0  0  0  0
   -5.1586  -17.3714   35.0017 C   0  0  0  0  0  0  0  0  0  0  0  0
   -4.7353  -16.2726   35.7392 C   0  0  0  0  0  0  0  0  0  0  0  0
   -3.6900  -15.4409   35.2953 C   0  0  0  0  0  0  0  0  0  0  0  0
   -3.1022  -15.7341   34.0592 C   0  0  0  0  0  0  0  0  0  0  0  0
   -2.0847  -15.1045   33.2917 N   0  0  0  0  0  0  0  0  0  0  0  0
    4.0966  -15.0454   26.0153 H   0  0  0  0  0  0  0  0  0  0  0  0
    3.0098  -14.1142   27.0359 H   0  0  0  0  0  0  0  0  0  0  0  0
    5.5517  -13.3574   25.8106 H   0  0  0  0  0  0  0  0  0  0  0  0
    6.6593   -9.6377   27.9473 H   0  0  0  0  0  0  0  0  0  0  0  0
    8.2862   -8.5868   26.1310 H   0  0  0  0  0  0  0  0  0  0  0  0
    8.9550  -10.3921   24.3173 H   0  0  0  0  0  0  0  0  0  0  0  0
    2.1827  -14.9935   28.6679 H   0  0  0  0  0  0  0  0  0  0  0  0
    1.6953  -16.7616   30.6615 H   0  0  0  0  0  0  0  0  0  0  0  0
    0.8558  -17.8206   29.8359 H   0  0  0  0  0  0  0  0  0  0  0  0
    0.0777  -14.8266   31.4222 H   0  0  0  0  0  0  0  0  0  0  0  0
   -0.8879  -15.2364   29.9899 H   0  0  0  0  0  0  0  0  0  0  0  0
   -4.8963  -18.5279   33.2427 H   0  0  0  0  0  0  0  0  0  0  0  0
   -5.9611  -18.0078   35.3656 H   0  0  0  0  0  0  0  0  0  0  0  0
   -5.2187  -16.0513   36.6885 H   0  0  0  0  0  0  0  0  0  0  0  0
   -3.3753  -14.5840   35.8806 H   0  0  0  0  0  0  0  0  0  0  0  0
   -1.5826  -14.2760   33.5645 H   0  0  0  0  0  0  0  0  0  0  0  0
  1  2  2  0
  2  3  1  0
  3  4  1  0
  4  5  1  0
  5  6  2  0
  5  7  1  0
  7  8  2  0
  8  9  1  0
  9 10  2  0
 10 11  1  0
  2 12  1  0
 12 13  1  0
 13 14  1  0
 14 15  1  0
 15 16  2  0
 16 17  1  0
 17 18  2  0
 18 19  1  0
 19 20  2  0
 20 21  1  0
 21 22  2  0
 22 23  1  0
 11  7  1  0
 23 15  1  0
 22 17  1  0
  3 24  1  0
  3 25  1  0
  4 26  1  0
  8 27  1  0
  9 28  1  0
 10 29  1  0
 12 30  1  0
 13 31  1  0
 13 32  1  0
 14 33  1  0
 14 34  1  0
 18 35  1  0
 19 36  1  0
 20 37  1  0
 21 38  1  0
 23 39  1  0
M  END
>  <Energy>  (163) 
328.54313106529384

>  <compound_id>  (163) 
4830

>  <target_id>  (163) 
1

>  <reference_id>  (163) 
94

>  <inspiration_ids>  (163) 
[94, 66]

>  <energy_score>  (163) 
276.1314462397635

>  <distance_score>  (163) 
14.18186197841199

>  <path>  (163) 
/opt/xchem-fragalysis-2/maxwin/BulkDock/SCRATCH/511016/C4830-P94/C4830-P94.minimised.mol

>  <scratch_subdir>  (163) 
/opt/xchem-fragalysis-2/maxwin/BulkDock/SCRATCH/511016/C4830-P94

>  <fragmenstein_runtime>  (163) 
25.004969120025635

>  <fragmenstein_outcome>  (163) 
too moved

>  <fragmenstein_mode>  (163) 
expansion

>  <fragmenstein_error>  (163) 


$$$$
C4830-P66
     RDKit          3D

 39 41  0  0  0  0  0  0  0  0999 V2000
   -4.3864  -12.3818   27.1062 O   0  0  0  0  0  0  0  0  0  0  0  0
   -3.3180  -12.8895   26.8188 C   0  0  0  0  0  0  0  0  0  0  0  0
   -2.2214  -11.6019   26.1136 C   0  0  0  0  0  0  0  0  0  0  0  0
   -1.1109  -10.3444   27.3080 N   0  0  0  0  0  0  0  0  0  0  0  0
   -1.0664  -10.1644   28.7604 C   0  0  0  0  0  0  0  0  0  0  0  0
   -1.7317  -10.6550   29.6350 O   0  0  0  0  0  0  0  0  0  0  0  0
    0.0652   -9.1496   28.9041 C   0  0  0  0  0  0  0  0  0  0  0  0
    0.0751   -7.8095   28.4948 C   0  0  0  0  0  0  0  0  0  0  0  0
    1.3854   -7.2648   28.2772 C   0  0  0  0  0  0  0  0  0  0  0  0
    2.3653   -8.1798   28.5727 C   0  0  0  0  0  0  0  0  0  0  0  0
    1.7027   -9.6814   29.0682 S   0  0  0  0  0  0  0  0  0  0  0  0
   -2.6750  -14.6422   27.1835 N   0  0  0  0  0  0  0  0  0  0  0  0
   -3.5224  -16.0582   28.2706 C   0  0  0  0  0  0  0  0  0  0  0  0
   -5.3193  -16.3557   29.2926 C   0  0  0  0  0  0  0  0  0  0  0  0
   -6.2995  -15.9763   30.5288 C   0  0  0  0  0  0  0  0  0  0  0  0
   -6.4244  -16.6544   31.6619 N   0  0  0  0  0  0  0  0  0  0  0  0
   -7.4659  -16.1473   32.3654 C   0  0  0  0  0  0  0  0  0  0  0  0
   -7.9159  -16.4723   33.6567 C   0  0  0  0  0  0  0  0  0  0  0  0
   -9.0703  -15.8375   34.1176 C   0  0  0  0  0  0  0  0  0  0  0  0
   -9.7288  -14.8859   33.3273 C   0  0  0  0  0  0  0  0  0  0  0  0
   -9.2651  -14.5237   32.0537 C   0  0  0  0  0  0  0  0  0  0  0  0
   -8.1202  -15.1812   31.6024 C   0  0  0  0  0  0  0  0  0  0  0  0
   -7.3669  -15.0839   30.4496 N   0  0  0  0  0  0  0  0  0  0  0  0
   -2.8099  -10.9340   26.6077 H   0  0  0  0  0  0  0  0  0  0  0  0
   -2.5403  -11.5604   25.1346 H   0  0  0  0  0  0  0  0  0  0  0  0
   -0.4607   -9.7120   26.8823 H   0  0  0  0  0  0  0  0  0  0  0  0
   -0.8323   -7.2544   28.2866 H   0  0  0  0  0  0  0  0  0  0  0  0
    1.5840   -6.2522   27.9449 H   0  0  0  0  0  0  0  0  0  0  0  0
    3.4382   -8.0441   28.5340 H   0  0  0  0  0  0  0  0  0  0  0  0
   -1.8061  -14.7995   26.7574 H   0  0  0  0  0  0  0  0  0  0  0  0
   -3.0638  -16.9298   27.7961 H   0  0  0  0  0  0  0  0  0  0  0  0
   -3.1706  -15.4173   29.1351 H   0  0  0  0  0  0  0  0  0  0  0  0
   -6.0499  -15.6901   28.7909 H   0  0  0  0  0  0  0  0  0  0  0  0
   -5.7630  -17.3665   29.1111 H   0  0  0  0  0  0  0  0  0  0  0  0
   -7.4056  -17.2332   34.2356 H   0  0  0  0  0  0  0  0  0  0  0  0
   -9.4733  -16.0989   35.0923 H   0  0  0  0  0  0  0  0  0  0  0  0
  -10.6358  -14.4226   33.7113 H   0  0  0  0  0  0  0  0  0  0  0  0
   -9.7757  -13.7756   31.4586 H   0  0  0  0  0  0  0  0  0  0  0  0
   -7.5297  -14.4332   29.6947 H   0  0  0  0  0  0  0  0  0  0  0  0
  1  2  2  0
  2  3  1  0
  3  4  1  0
  4  5  1  0
  5  6  2  0
  5  7  1  0
  7  8  2  0
  8  9  1  0
  9 10  2  0
 10 11  1  0
  2 12  1  0
 12 13  1  0
 13 14  1  0
 14 15  1  0
 15 16  2  0
 16 17  1  0
 17 18  2  0
 18 19  1  0
 19 20  2  0
 20 21  1  0
 21 22  2  0
 22 23  1  0
 11  7  1  0
 23 15  1  0
 22 17  1  0
  3 24  1  0
  3 25  1  0
  4 26  1  0
  8 27  1  0
  9 28  1  0
 10 29  1  0
 12 30  1  0
 13 31  1  0
 13 32  1  0
 14 33  1  0
 14 34  1  0
 18 35  1  0
 19 36  1  0
 20 37  1  0
 21 38  1  0
 23 39  1  0
M  END
>  <Energy>  (164) 
534.52045817392616

>  <compound_id>  (164) 
4830

>  <target_id>  (164) 
1

>  <reference_id>  (164) 
66

>  <inspiration_ids>  (164) 
[94, 66]

>  <energy_score>  (164) 
482.10877334837073

>  <distance_score>  (164) 
15.469057821026407

>  <path>  (164) 
/opt/xchem-fragalysis-2/maxwin/BulkDock/SCRATCH/511016/C4830-P66/C4830-P66.minimised.mol

>  <scratch_subdir>  (164) 
/opt/xchem-fragalysis-2/maxwin/BulkDock/SCRATCH/511016/C4830-P66

>  <fragmenstein_runtime>  (164) 
22.234951496124268

>  <fragmenstein_outcome>  (164) 
too moved

>  <fragmenstein_mode>  (164) 
expansion

>  <fragmenstein_error>  (164) 


$$$$
C4831-P94
     RDKit          3D

 40 42  0  0  0  0  0  0  0  0999 V2000
    5.2789  -10.6411   28.1900 C   0  0  0  0  0  0  0  0  0  0  0  0
    4.9746  -12.0424   28.5873 N   0  0  0  0  0  0  0  0  0  0  0  0
    5.6265  -12.1464   29.9157 C   0  0  0  0  0  0  0  0  0  0  0  0
    5.1200  -13.3404   27.5997 C   0  0  0  0  0  0  0  0  0  0  0  0
    3.7086  -14.8314   27.2602 C   0  0  0  0  0  0  0  0  0  0  0  0
    2.9986  -16.3697   28.2528 N   0  0  0  0  0  0  0  0  0  0  0  0
    1.3825  -16.6051   29.1714 C   0  0  0  0  0  0  0  0  0  0  0  0
    0.4857  -15.8075   29.1582 O   0  0  0  0  0  0  0  0  0  0  0  0
    0.9790  -17.9626   30.3932 C   0  0  0  0  0  0  0  0  0  0  0  0
    0.3668  -19.3028   30.4408 C   0  0  0  0  0  0  0  0  0  0  0  0
   -0.1403  -20.0686   31.5133 C   0  0  0  0  0  0  0  0  0  0  0  0
   -0.7307  -21.8457   31.2295 Br  0  0  0  0  0  0  0  0  0  0  0  0
   -0.3169  -19.4847   32.7295 C   0  0  0  0  0  0  0  0  0  0  0  0
    0.0788  -18.1572   32.7673 C   0  0  0  0  0  0  0  0  0  0  0  0
   -0.1555  -17.2485   33.7690 N   0  0  0  0  0  0  0  0  0  0  0  0
    0.3899  -16.0712   33.3891 C   0  0  0  0  0  0  0  0  0  0  0  0
    0.9802  -16.1710   32.2240 N   0  0  0  0  0  0  0  0  0  0  0  0
    0.7386  -17.4368   31.7351 C   0  0  0  0  0  0  0  0  0  0  0  0
    6.7042  -12.9161   26.6669 C   0  0  0  0  0  0  0  0  0  0  0  0
    7.2521  -13.4620   25.4914 C   0  0  0  0  0  0  0  0  0  0  0  0
    8.2937  -12.6891   24.8751 C   0  0  0  0  0  0  0  0  0  0  0  0
    8.6834  -11.6495   25.6739 C   0  0  0  0  0  0  0  0  0  0  0  0
    7.8842  -11.7095   27.1800 S   0  0  0  0  0  0  0  0  0  0  0  0
    6.1123  -10.1820   28.7386 H   0  0  0  0  0  0  0  0  0  0  0  0
    4.4137  -10.0095   28.4323 H   0  0  0  0  0  0  0  0  0  0  0  0
    5.5048  -10.5040   27.1390 H   0  0  0  0  0  0  0  0  0  0  0  0
    5.6135  -13.1244   30.3890 H   0  0  0  0  0  0  0  0  0  0  0  0
    6.6842  -11.8563   29.8948 H   0  0  0  0  0  0  0  0  0  0  0  0
    5.1213  -11.4692   30.6167 H   0  0  0  0  0  0  0  0  0  0  0  0
    4.9726  -13.2016   26.5428 H   0  0  0  0  0  0  0  0  0  0  0  0
    2.8235  -14.2111   27.1219 H   0  0  0  0  0  0  0  0  0  0  0  0
    4.1179  -15.2557   26.3452 H   0  0  0  0  0  0  0  0  0  0  0  0
    3.6360  -17.1392   28.4818 H   0  0  0  0  0  0  0  0  0  0  0  0
    0.1226  -19.7925   29.5302 H   0  0  0  0  0  0  0  0  0  0  0  0
   -0.7985  -19.9789   33.5635 H   0  0  0  0  0  0  0  0  0  0  0  0
   -0.6630  -17.4221   34.6245 H   0  0  0  0  0  0  0  0  0  0  0  0
    0.3442  -15.1760   33.9949 H   0  0  0  0  0  0  0  0  0  0  0  0
    6.8647  -14.3613   25.0301 H   0  0  0  0  0  0  0  0  0  0  0  0
    8.7434  -12.9170   23.9169 H   0  0  0  0  0  0  0  0  0  0  0  0
    9.4598  -10.9199   25.4901 H   0  0  0  0  0  0  0  0  0  0  0  0
  1  2  1  0
  2  3  1  0
  2  4  1  0
  4  5  1  0
  5  6  1  0
  6  7  1  0
  7  8  2  0
  7  9  1  0
  9 10  2  0
 10 11  1  0
 11 12  1  0
 11 13  2  0
 13 14  1  0
 14 15  1  0
 15 16  1  0
 16 17  2  0
 17 18  1  0
  4 19  1  0
 19 20  2  0
 20 21  1  0
 21 22  2  0
 22 23  1  0
 18  9  1  0
 23 19  1  0
 18 14  2  0
  1 24  1  0
  1 25  1  0
  1 26  1  0
  3 27  1  0
  3 28  1  0
  3 29  1  0
  4 30  1  0
  5 31  1  0
  5 32  1  0
  6 33  1  0
 10 34  1  0
 13 35  1  0
 15 36  1  0
 16 37  1  0
 20 38  1  0
 21 39  1  0
 22 40  1  0
M  END
>  <Energy>  (165) 
469.75423683678258

>  <compound_id>  (165) 
4831

>  <target_id>  (165) 
1

>  <reference_id>  (165) 
94

>  <inspiration_ids>  (165) 
[94, 66]

>  <energy_score>  (165) 
336.31825976896846

>  <distance_score>  (165) 
15.294939455696317

>  <path>  (165) 
/opt/xchem-fragalysis-2/maxwin/BulkDock/SCRATCH/511016/C4831-P94/C4831-P94.minimised.mol

>  <scratch_subdir>  (165) 
/opt/xchem-fragalysis-2/maxwin/BulkDock/SCRATCH/511016/C4831-P94

>  <fragmenstein_runtime>  (165) 
24.235350847244263

>  <fragmenstein_outcome>  (165) 
too moved

>  <fragmenstein_mode>  (165) 
expansion

>  <fragmenstein_error>  (165) 


$$$$
C4831-P66
     RDKit          3D

 40 42  0  0  0  0  0  0  0  0999 V2000
   -7.5078  -13.2022   23.9486 C   0  0  0  0  0  0  0  0  0  0  0  0
   -8.1536  -14.0162   24.9800 N   0  0  0  0  0  0  0  0  0  0  0  0
   -9.4315  -14.4982   24.4549 C   0  0  0  0  0  0  0  0  0  0  0  0
   -8.2829  -13.4972   26.3881 C   0  0  0  0  0  0  0  0  0  0  0  0
   -9.6215  -14.1685   27.3877 C   0  0  0  0  0  0  0  0  0  0  0  0
   -9.9194  -15.7517   27.6827 N   0  0  0  0  0  0  0  0  0  0  0  0
  -10.9928  -16.4375   28.6072 C   0  0  0  0  0  0  0  0  0  0  0  0
  -11.7877  -15.9491   29.3700 O   0  0  0  0  0  0  0  0  0  0  0  0
  -11.0169  -18.1253   28.6493 C   0  0  0  0  0  0  0  0  0  0  0  0
   -9.4303  -18.7253   27.9295 C   0  0  0  0  0  0  0  0  0  0  0  0
   -9.5820  -20.6657   27.7700 C   0  0  0  0  0  0  0  0  0  0  0  0
  -11.4751  -22.0090   27.0085 Br  0  0  0  0  0  0  0  0  0  0  0  0
  -10.2849  -21.5760   28.7476 C   0  0  0  0  0  0  0  0  0  0  0  0
  -11.1620  -20.9448   29.5788 C   0  0  0  0  0  0  0  0  0  0  0  0
  -11.8267  -21.6122   30.5464 N   0  0  0  0  0  0  0  0  0  0  0  0
  -13.0354  -21.5322   30.0112 C   0  0  0  0  0  0  0  0  0  0  0  0
  -13.2004  -20.4124   29.2298 N   0  0  0  0  0  0  0  0  0  0  0  0
  -12.0743  -19.7582   28.9568 C   0  0  0  0  0  0  0  0  0  0  0  0
   -8.0215  -11.9264   26.5266 C   0  0  0  0  0  0  0  0  0  0  0  0
   -7.1912  -11.2723   27.4363 C   0  0  0  0  0  0  0  0  0  0  0  0
   -7.0598   -9.8598   27.2079 C   0  0  0  0  0  0  0  0  0  0  0  0
   -7.7267   -9.4629   26.0761 C   0  0  0  0  0  0  0  0  0  0  0  0
   -8.6711  -10.7380   25.4415 S   0  0  0  0  0  0  0  0  0  0  0  0
   -7.1031  -13.8665   23.1746 H   0  0  0  0  0  0  0  0  0  0  0  0
   -8.2039  -12.5330   23.4319 H   0  0  0  0  0  0  0  0  0  0  0  0
   -6.6645  -12.6127   24.3139 H   0  0  0  0  0  0  0  0  0  0  0  0
   -9.8060  -15.3451   25.0343 H   0  0  0  0  0  0  0  0  0  0  0  0
   -9.3163  -14.8800   23.4330 H   0  0  0  0  0  0  0  0  0  0  0  0
  -10.1919  -13.7098   24.4372 H   0  0  0  0  0  0  0  0  0  0  0  0
   -7.4274  -13.9029   26.9316 H   0  0  0  0  0  0  0  0  0  0  0  0
   -9.5097  -13.7277   28.3849 H   0  0  0  0  0  0  0  0  0  0  0  0
  -10.5568  -13.7847   26.9653 H   0  0  0  0  0  0  0  0  0  0  0  0
   -9.4745  -16.4515   27.1085 H   0  0  0  0  0  0  0  0  0  0  0  0
   -8.5169  -18.1303   27.9028 H   0  0  0  0  0  0  0  0  0  0  0  0
  -10.1433  -22.6630   28.6834 H   0  0  0  0  0  0  0  0  0  0  0  0
  -11.4987  -22.3930   31.0984 H   0  0  0  0  0  0  0  0  0  0  0  0
  -13.8431  -22.1263   30.3994 H   0  0  0  0  0  0  0  0  0  0  0  0
   -6.6917  -11.7866   28.2475 H   0  0  0  0  0  0  0  0  0  0  0  0
   -6.4654   -9.1928   27.8203 H   0  0  0  0  0  0  0  0  0  0  0  0
   -7.7749   -8.4744   25.6407 H   0  0  0  0  0  0  0  0  0  0  0  0
  1  2  1  0
  2  3  1  0
  2  4  1  0
  4  5  1  0
  5  6  1  0
  6  7  1  0
  7  8  2  0
  7  9  1  0
  9 10  2  0
 10 11  1  0
 11 12  1  0
 11 13  2  0
 13 14  1  0
 14 15  1  0
 15 16  1  0
 16 17  2  0
 17 18  1  0
  4 19  1  0
 19 20  2  0
 20 21  1  0
 21 22  2  0
 22 23  1  0
 18  9  1  0
 23 19  1  0
 18 14  2  0
  1 24  1  0
  1 25  1  0
  1 26  1  0
  3 27  1  0
  3 28  1  0
  3 29  1  0
  4 30  1  0
  5 31  1  0
  5 32  1  0
  6 33  1  0
 10 34  1  0
 13 35  1  0
 15 36  1  0
 16 37  1  0
 20 38  1  0
 21 39  1  0
 22 40  1  0
M  END
>  <Energy>  (166) 
671.45743938255214

>  <compound_id>  (166) 
4831

>  <target_id>  (166) 
1

>  <reference_id>  (166) 
66

>  <inspiration_ids>  (166) 
[94, 66]

>  <energy_score>  (166) 
538.0214623147269

>  <distance_score>  (166) 
18.37395499172313

>  <path>  (166) 
/opt/xchem-fragalysis-2/maxwin/BulkDock/SCRATCH/511016/C4831-P66/C4831-P66.minimised.mol

>  <scratch_subdir>  (166) 
/opt/xchem-fragalysis-2/maxwin/BulkDock/SCRATCH/511016/C4831-P66

>  <fragmenstein_runtime>  (166) 
21.893265962600708

>  <fragmenstein_outcome>  (166) 
too moved

>  <fragmenstein_mode>  (166) 
expansion

>  <fragmenstein_error>  (166) 


$$$$
C4834-P94
     RDKit          3D

 29 31  0  0  0  0  0  0  0  0999 V2000
   -3.0170  -16.1943   28.3138 O   0  0  0  0  0  0  0  0  0  0  0  0
   -3.3652  -16.8798   27.4011 C   0  0  0  0  0  0  0  0  0  0  0  0
   -2.6480  -16.4727   25.6380 N   0  0  0  0  0  0  0  0  0  0  0  0
   -1.4733  -14.9378   24.9593 C   0  0  0  0  0  0  0  0  0  0  0  0
    0.4717  -14.2988   24.5025 C   0  0  0  0  0  0  0  0  0  0  0  0
    1.6349  -13.5093   25.5667 C   0  0  0  0  0  0  0  0  0  0  0  0
    3.4102  -13.8894   24.8846 C   0  0  0  0  0  0  0  0  0  0  0  0
    3.3617  -13.7393   23.5424 C   0  0  0  0  0  0  0  0  0  0  0  0
    2.0363  -12.7109   23.9012 S   0  0  0  0  0  0  0  0  0  0  0  0
   -4.7836  -18.1315   28.0183 C   0  0  0  0  0  0  0  0  0  0  0  0
   -6.5816  -18.2200   28.5099 C   0  0  0  0  0  0  0  0  0  0  0  0
   -7.9591  -19.3397   28.3912 C   0  0  0  0  0  0  0  0  0  0  0  0
  -10.1506  -20.6379   29.2644 Br  0  0  0  0  0  0  0  0  0  0  0  0
   -7.0466  -20.1215   27.5879 C   0  0  0  0  0  0  0  0  0  0  0  0
   -5.3850  -20.2625   27.4205 C   0  0  0  0  0  0  0  0  0  0  0  0
   -4.6700  -21.4503   27.1512 N   0  0  0  0  0  0  0  0  0  0  0  0
   -3.3945  -21.3103   27.5906 C   0  0  0  0  0  0  0  0  0  0  0  0
   -3.1675  -20.0878   27.9862 N   0  0  0  0  0  0  0  0  0  0  0  0
   -4.3878  -19.4468   27.9257 C   0  0  0  0  0  0  0  0  0  0  0  0
   -2.9494  -17.1580   25.0115 H   0  0  0  0  0  0  0  0  0  0  0  0
   -1.9224  -14.0974   25.4775 H   0  0  0  0  0  0  0  0  0  0  0  0
   -1.7050  -15.2053   23.9457 H   0  0  0  0  0  0  0  0  0  0  0  0
    1.4918  -13.7197   26.5905 H   0  0  0  0  0  0  0  0  0  0  0  0
    4.1837  -14.2751   25.5552 H   0  0  0  0  0  0  0  0  0  0  0  0
    4.1340  -13.6915   22.7889 H   0  0  0  0  0  0  0  0  0  0  0  0
   -6.8692  -17.2700   28.9922 H   0  0  0  0  0  0  0  0  0  0  0  0
   -7.5013  -21.1412   27.4346 H   0  0  0  0  0  0  0  0  0  0  0  0
   -5.0798  -22.3242   26.8551 H   0  0  0  0  0  0  0  0  0  0  0  0
   -2.6780  -22.1191   27.5804 H   0  0  0  0  0  0  0  0  0  0  0  0
  1  2  2  0
  2  3  1  0
  3  4  1  0
  4  5  1  0
  5  6  2  0
  6  7  1  0
  7  8  2  0
  8  9  1  0
  2 10  1  0
 10 11  2  0
 11 12  1  0
 12 13  1  0
 12 14  2  0
 14 15  1  0
 15 16  1  0
 16 17  1  0
 17 18  2  0
 18 19  1  0
  9  5  1  0
 19 10  1  0
 19 15  2  0
  3 20  1  0
  4 21  1  0
  4 22  1  0
  6 23  1  0
  7 24  1  0
  8 25  1  0
 11 26  1  0
 14 27  1  0
 16 28  1  0
 17 29  1  0
M  END
>  <Energy>  (167) 
1072.8216139473773

>  <compound_id>  (167) 
4834

>  <target_id>  (167) 
1

>  <reference_id>  (167) 
94

>  <inspiration_ids>  (167) 
[94, 66]

>  <energy_score>  (167) 
1029.0261594437056

>  <distance_score>  (167) 
15.407023977938097

>  <path>  (167) 
/opt/xchem-fragalysis-2/maxwin/BulkDock/SCRATCH/511016/C4834-P94/C4834-P94.minimised.mol

>  <scratch_subdir>  (167) 
/opt/xchem-fragalysis-2/maxwin/BulkDock/SCRATCH/511016/C4834-P94

>  <fragmenstein_runtime>  (167) 
18.085550546646118

>  <fragmenstein_outcome>  (167) 
too moved

>  <fragmenstein_mode>  (167) 
expansion

>  <fragmenstein_error>  (167) 


$$$$
C4834-P66
     RDKit          3D

 29 31  0  0  0  0  0  0  0  0999 V2000
   -0.4164  -16.0925   31.6176 O   0  0  0  0  0  0  0  0  0  0  0  0
    0.0593  -16.8775   30.8454 C   0  0  0  0  0  0  0  0  0  0  0  0
    1.3843  -16.8924   30.1815 N   0  0  0  0  0  0  0  0  0  0  0  0
    2.5653  -15.9974   30.3441 C   0  0  0  0  0  0  0  0  0  0  0  0
    3.5153  -15.5934   29.1715 C   0  0  0  0  0  0  0  0  0  0  0  0
    4.0347  -16.2951   28.0911 C   0  0  0  0  0  0  0  0  0  0  0  0
    5.0042  -15.5612   27.3113 C   0  0  0  0  0  0  0  0  0  0  0  0
    5.2554  -14.3185   27.8351 C   0  0  0  0  0  0  0  0  0  0  0  0
    4.3360  -14.0433   29.2503 S   0  0  0  0  0  0  0  0  0  0  0  0
   -0.8716  -18.1057   30.6313 C   0  0  0  0  0  0  0  0  0  0  0  0
   -0.3335  -19.4083   30.7111 C   0  0  0  0  0  0  0  0  0  0  0  0
   -1.1362  -20.5653   30.6993 C   0  0  0  0  0  0  0  0  0  0  0  0
   -0.2949  -22.2636   30.7907 Br  0  0  0  0  0  0  0  0  0  0  0  0
   -2.5256  -20.5131   30.6575 C   0  0  0  0  0  0  0  0  0  0  0  0
   -3.0786  -19.2380   30.6657 C   0  0  0  0  0  0  0  0  0  0  0  0
   -4.3993  -18.8485   30.7271 N   0  0  0  0  0  0  0  0  0  0  0  0
   -4.4144  -17.4892   30.7573 C   0  0  0  0  0  0  0  0  0  0  0  0
   -3.2007  -16.9859   30.6860 N   0  0  0  0  0  0  0  0  0  0  0  0
   -2.3167  -18.0504   30.6533 C   0  0  0  0  0  0  0  0  0  0  0  0
    1.4815  -17.7445   29.6594 H   0  0  0  0  0  0  0  0  0  0  0  0
    2.2057  -15.1057   30.8658 H   0  0  0  0  0  0  0  0  0  0  0  0
    3.2005  -16.5253   31.0678 H   0  0  0  0  0  0  0  0  0  0  0  0
    3.7300  -17.3089   27.8608 H   0  0  0  0  0  0  0  0  0  0  0  0
    5.4996  -15.9473   26.4302 H   0  0  0  0  0  0  0  0  0  0  0  0
    5.9447  -13.5677   27.4729 H   0  0  0  0  0  0  0  0  0  0  0  0
    0.7400  -19.5221   30.8438 H   0  0  0  0  0  0  0  0  0  0  0  0
   -3.1399  -21.4045   30.6794 H   0  0  0  0  0  0  0  0  0  0  0  0
   -5.2154  -19.4541   30.7647 H   0  0  0  0  0  0  0  0  0  0  0  0
   -5.3324  -16.9216   30.8274 H   0  0  0  0  0  0  0  0  0  0  0  0
  1  2  2  0
  2  3  1  0
  3  4  1  0
  4  5  1  0
  5  6  2  0
  6  7  1  0
  7  8  2  0
  8  9  1  0
  2 10  1  0
 10 11  2  0
 11 12  1  0
 12 13  1  0
 12 14  2  0
 14 15  1  0
 15 16  1  0
 16 17  1  0
 17 18  2  0
 18 19  1  0
  9  5  1  0
 19 10  1  0
 19 15  2  0
  3 20  1  0
  4 21  1  0
  4 22  1  0
  6 23  1  0
  7 24  1  0
  8 25  1  0
 11 26  1  0
 14 27  1  0
 16 28  1  0
 17 29  1  0
M  END
>  <Energy>  (168) 
37.514751803856363

>  <compound_id>  (168) 
4834

>  <target_id>  (168) 
1

>  <reference_id>  (168) 
66

>  <inspiration_ids>  (168) 
[94, 66]

>  <energy_score>  (168) 
-6.280702699811172

>  <distance_score>  (168) 
16.814414253526564

>  <path>  (168) 
/opt/xchem-fragalysis-2/maxwin/BulkDock/SCRATCH/511016/C4834-P66/C4834-P66.minimised.mol

>  <scratch_subdir>  (168) 
/opt/xchem-fragalysis-2/maxwin/BulkDock/SCRATCH/511016/C4834-P66

>  <fragmenstein_runtime>  (168) 
16.27995491027832

>  <fragmenstein_outcome>  (168) 
too moved

>  <fragmenstein_mode>  (168) 
expansion

>  <fragmenstein_error>  (168) 


$$$$
C4836-P94
     RDKit          3D

 33 35  0  0  0  0  0  0  0  0999 V2000
    1.7926  -15.1139   23.4328 O   0  0  0  0  0  0  0  0  0  0  0  0
    0.9816  -14.3170   23.8047 C   0  0  0  0  0  0  0  0  0  0  0  0
    1.8732  -12.4007   23.6205 C   0  0  0  0  0  0  0  0  0  0  0  0
    3.6214  -12.1125   22.7083 C   0  0  0  0  0  0  0  0  0  0  0  0
    4.6182  -10.7414   22.4915 C   0  0  0  0  0  0  0  0  0  0  0  0
    5.9365  -10.7024   21.7200 C   0  0  0  0  0  0  0  0  0  0  0  0
    5.9862  -11.7242   20.7986 C   0  0  0  0  0  0  0  0  0  0  0  0
    4.4978  -12.7789   20.7927 S   0  0  0  0  0  0  0  0  0  0  0  0
   -0.6312  -15.2074   24.6759 N   0  0  0  0  0  0  0  0  0  0  0  0
   -1.0055  -17.2997   25.3078 N   0  0  0  0  0  0  0  0  0  0  0  0
   -2.0874  -17.9091   26.3401 C   0  0  0  0  0  0  0  0  0  0  0  0
   -2.9607  -17.3141   26.8942 O   0  0  0  0  0  0  0  0  0  0  0  0
   -2.2445  -19.7154   26.6827 C   0  0  0  0  0  0  0  0  0  0  0  0
   -2.7133  -20.6871   25.5867 C   0  0  0  0  0  0  0  0  0  0  0  0
   -2.8578  -22.1204   25.6433 C   0  0  0  0  0  0  0  0  0  0  0  0
   -3.0699  -23.1370   24.0637 Br  0  0  0  0  0  0  0  0  0  0  0  0
   -2.8401  -22.7294   26.8666 C   0  0  0  0  0  0  0  0  0  0  0  0
   -3.5078  -21.7641   27.5667 C   0  0  0  0  0  0  0  0  0  0  0  0
   -4.8972  -21.6425   27.4488 N   0  0  0  0  0  0  0  0  0  0  0  0
   -5.1593  -20.3023   27.4643 C   0  0  0  0  0  0  0  0  0  0  0  0
   -4.2323  -19.8129   28.1944 N   0  0  0  0  0  0  0  0  0  0  0  0
   -3.1766  -20.3699   27.5695 C   0  0  0  0  0  0  0  0  0  0  0  0
    2.6541  -13.0239   24.1382 H   0  0  0  0  0  0  0  0  0  0  0  0
    1.8222  -11.8689   24.5377 H   0  0  0  0  0  0  0  0  0  0  0  0
    4.2837   -9.7891   22.8716 H   0  0  0  0  0  0  0  0  0  0  0  0
    6.6137   -9.8581   21.7389 H   0  0  0  0  0  0  0  0  0  0  0  0
    6.7097  -11.9208   20.0204 H   0  0  0  0  0  0  0  0  0  0  0  0
   -1.3152  -14.4873   24.8915 H   0  0  0  0  0  0  0  0  0  0  0  0
   -0.3268  -17.9954   25.1055 H   0  0  0  0  0  0  0  0  0  0  0  0
   -2.7958  -20.3997   24.5626 H   0  0  0  0  0  0  0  0  0  0  0  0
   -3.0575  -23.7889   26.9493 H   0  0  0  0  0  0  0  0  0  0  0  0
   -5.4993  -22.3842   27.1205 H   0  0  0  0  0  0  0  0  0  0  0  0
   -6.0592  -19.7541   27.2115 H   0  0  0  0  0  0  0  0  0  0  0  0
  1  2  2  0
  2  3  1  0
  3  4  1  0
  4  5  2  0
  5  6  1  0
  6  7  2  0
  7  8  1  0
  2  9  1  0
  9 10  1  0
 10 11  1  0
 11 12  2  0
 11 13  1  0
 13 14  2  0
 14 15  1  0
 15 16  1  0
 15 17  2  0
 17 18  1  0
 18 19  1  0
 19 20  1  0
 20 21  2  0
 21 22  1  0
  8  4  1  0
 22 13  1  0
 22 18  2  0
  3 23  1  0
  3 24  1  0
  5 25  1  0
  6 26  1  0
  7 27  1  0
  9 28  1  0
 10 29  1  0
 14 30  1  0
 17 31  1  0
 19 32  1  0
 20 33  1  0
M  END
>  <Energy>  (169) 
970.84761100198079

>  <compound_id>  (169) 
4836

>  <target_id>  (169) 
1

>  <reference_id>  (169) 
94

>  <inspiration_ids>  (169) 
[94, 66]

>  <energy_score>  (169) 
837.9193435915408

>  <distance_score>  (169) 
12.957046886575878

>  <path>  (169) 
/opt/xchem-fragalysis-2/maxwin/BulkDock/SCRATCH/511016/C4836-P94/C4836-P94.minimised.mol

>  <scratch_subdir>  (169) 
/opt/xchem-fragalysis-2/maxwin/BulkDock/SCRATCH/511016/C4836-P94

>  <fragmenstein_runtime>  (169) 
14.60205888748169

>  <fragmenstein_outcome>  (169) 
too moved

>  <fragmenstein_mode>  (169) 
expansion

>  <fragmenstein_error>  (169) 


$$$$
C4836-P66
     RDKit          3D

 33 35  0  0  0  0  0  0  0  0999 V2000
    3.8829   -9.9789   22.9467 O   0  0  0  0  0  0  0  0  0  0  0  0
    3.9974  -11.1121   22.4925 C   0  0  0  0  0  0  0  0  0  0  0  0
    5.5173  -11.2725   21.3232 C   0  0  0  0  0  0  0  0  0  0  0  0
    6.4170   -9.9825   21.0594 C   0  0  0  0  0  0  0  0  0  0  0  0
    7.5998  -10.0063   20.3252 C   0  0  0  0  0  0  0  0  0  0  0  0
    8.4219   -8.8707   20.5640 C   0  0  0  0  0  0  0  0  0  0  0  0
    7.7747   -7.9079   21.2968 C   0  0  0  0  0  0  0  0  0  0  0  0
    6.2446   -8.4536   21.8220 S   0  0  0  0  0  0  0  0  0  0  0  0
    3.0422  -12.6768   22.8565 N   0  0  0  0  0  0  0  0  0  0  0  0
    1.6481  -13.1083   24.1512 N   0  0  0  0  0  0  0  0  0  0  0  0
   -0.0877  -14.0909   23.9796 C   0  0  0  0  0  0  0  0  0  0  0  0
   -0.3342  -14.3822   22.8547 O   0  0  0  0  0  0  0  0  0  0  0  0
   -1.7062  -14.6362   25.2134 C   0  0  0  0  0  0  0  0  0  0  0  0
   -2.5477  -16.0681   25.0931 C   0  0  0  0  0  0  0  0  0  0  0  0
   -2.2835  -17.5515   26.1012 C   0  0  0  0  0  0  0  0  0  0  0  0
   -2.6706  -19.8048   26.5969 Br  0  0  0  0  0  0  0  0  0  0  0  0
   -1.5358  -17.4803   27.2180 C   0  0  0  0  0  0  0  0  0  0  0  0
   -1.6084  -16.1819   27.6497 C   0  0  0  0  0  0  0  0  0  0  0  0
   -0.9400  -15.3343   28.6718 N   0  0  0  0  0  0  0  0  0  0  0  0
   -2.0928  -14.7630   29.0830 C   0  0  0  0  0  0  0  0  0  0  0  0
   -2.7113  -15.1185   27.9919 N   0  0  0  0  0  0  0  0  0  0  0  0
   -1.9438  -15.0500   26.9266 C   0  0  0  0  0  0  0  0  0  0  0  0
    6.4137  -11.7603   21.7605 H   0  0  0  0  0  0  0  0  0  0  0  0
    5.3482  -11.9637   20.4935 H   0  0  0  0  0  0  0  0  0  0  0  0
    7.9274  -10.8767   19.7674 H   0  0  0  0  0  0  0  0  0  0  0  0
    9.4365   -8.7735   20.2073 H   0  0  0  0  0  0  0  0  0  0  0  0
    8.1463   -6.9390   21.6007 H   0  0  0  0  0  0  0  0  0  0  0  0
    3.3190  -13.4222   22.2518 H   0  0  0  0  0  0  0  0  0  0  0  0
    1.7527  -12.8162   25.1194 H   0  0  0  0  0  0  0  0  0  0  0  0
   -3.2032  -15.8510   24.2772 H   0  0  0  0  0  0  0  0  0  0  0  0
   -0.9397  -18.2313   27.6252 H   0  0  0  0  0  0  0  0  0  0  0  0
   -0.1559  -15.5603   29.2640 H   0  0  0  0  0  0  0  0  0  0  0  0
   -2.4405  -14.4690   30.0739 H   0  0  0  0  0  0  0  0  0  0  0  0
  1  2  2  0
  2  3  1  0
  3  4  1  0
  4  5  2  0
  5  6  1  0
  6  7  2  0
  7  8  1  0
  2  9  1  0
  9 10  1  0
 10 11  1  0
 11 12  2  0
 11 13  1  0
 13 14  2  0
 14 15  1  0
 15 16  1  0
 15 17  2  0
 17 18  1  0
 18 19  1  0
 19 20  1  0
 20 21  2  0
 21 22  1  0
  8  4  1  0
 22 13  1  0
 22 18  2  0
  3 23  1  0
  3 24  1  0
  5 25  1  0
  6 26  1  0
  7 27  1  0
  9 28  1  0
 10 29  1  0
 14 30  1  0
 17 31  1  0
 19 32  1  0
 20 33  1  0
M  END
>  <Energy>  (170) 
962.35672923120819

>  <compound_id>  (170) 
4836

>  <target_id>  (170) 
1

>  <reference_id>  (170) 
66

>  <inspiration_ids>  (170) 
[94, 66]

>  <energy_score>  (170) 
829.4284618207391

>  <distance_score>  (170) 
13.08567208509142

>  <path>  (170) 
/opt/xchem-fragalysis-2/maxwin/BulkDock/SCRATCH/511016/C4836-P66/C4836-P66.minimised.mol

>  <scratch_subdir>  (170) 
/opt/xchem-fragalysis-2/maxwin/BulkDock/SCRATCH/511016/C4836-P66

>  <fragmenstein_runtime>  (170) 
19.09406352043152

>  <fragmenstein_outcome>  (170) 
too moved

>  <fragmenstein_mode>  (170) 
expansion

>  <fragmenstein_error>  (170) 


$$$$
C4837-P94
     RDKit          3D

 39 41  0  0  0  0  0  0  0  0999 V2000
    1.4042  -13.4056   25.5024 C   0  0  0  0  0  0  0  0  0  0  0  0
    1.4187  -14.2534   26.7522 C   0  0  0  0  0  0  0  0  0  0  0  0
   -0.5190  -14.7955   27.6781 C   0  0  0  0  0  0  0  0  0  0  0  0
   -2.2658  -15.5969   27.9428 N   0  0  0  0  0  0  0  0  0  0  0  0
   -3.0009  -17.2477   27.4204 C   0  0  0  0  0  0  0  0  0  0  0  0
   -2.3329  -17.9608   26.7141 O   0  0  0  0  0  0  0  0  0  0  0  0
   -4.9267  -18.0155   27.8328 C   0  0  0  0  0  0  0  0  0  0  0  0
   -5.5459  -17.0967   29.3045 C   0  0  0  0  0  0  0  0  0  0  0  0
   -6.6837  -16.8440   30.0146 C   0  0  0  0  0  0  0  0  0  0  0  0
   -7.5295  -16.9965   28.9963 C   0  0  0  0  0  0  0  0  0  0  0  0
   -8.5867  -16.1643   28.6900 N   0  0  0  0  0  0  0  0  0  0  0  0
   -9.2476  -16.7211   27.6744 C   0  0  0  0  0  0  0  0  0  0  0  0
   -8.5621  -17.7444   27.2540 N   0  0  0  0  0  0  0  0  0  0  0  0
   -7.4101  -17.9631   27.9951 C   0  0  0  0  0  0  0  0  0  0  0  0
   -6.1148  -18.7536   27.5917 C   0  0  0  0  0  0  0  0  0  0  0  0
    3.4402  -14.1462   26.7369 N   0  0  0  0  0  0  0  0  0  0  0  0
    4.6252  -13.0332   27.6538 C   0  0  0  0  0  0  0  0  0  0  0  0
    4.2883  -12.2306   28.5452 O   0  0  0  0  0  0  0  0  0  0  0  0
    6.2408  -12.8128   27.2860 C   0  0  0  0  0  0  0  0  0  0  0  0
    7.3721  -13.1855   26.5225 C   0  0  0  0  0  0  0  0  0  0  0  0
    8.2617  -12.1444   26.0670 C   0  0  0  0  0  0  0  0  0  0  0  0
    7.9378  -10.9228   26.5749 C   0  0  0  0  0  0  0  0  0  0  0  0
    6.6699  -11.0345   27.7013 S   0  0  0  0  0  0  0  0  0  0  0  0
    0.7333  -14.0084   24.8569 H   0  0  0  0  0  0  0  0  0  0  0  0
    1.2525  -12.3129   25.7198 H   0  0  0  0  0  0  0  0  0  0  0  0
    2.2385  -13.2435   24.7714 H   0  0  0  0  0  0  0  0  0  0  0  0
    1.1736  -13.2538   26.9128 H   0  0  0  0  0  0  0  0  0  0  0  0
   -1.3749  -14.7216   26.9002 H   0  0  0  0  0  0  0  0  0  0  0  0
   -0.4487  -13.9352   27.1455 H   0  0  0  0  0  0  0  0  0  0  0  0
   -2.8787  -15.1737   28.5781 H   0  0  0  0  0  0  0  0  0  0  0  0
   -4.7396  -16.5126   29.8221 H   0  0  0  0  0  0  0  0  0  0  0  0
   -6.7466  -16.1464   30.8343 H   0  0  0  0  0  0  0  0  0  0  0  0
   -8.8376  -15.3222   29.1895 H   0  0  0  0  0  0  0  0  0  0  0  0
  -10.1718  -16.3412   27.2626 H   0  0  0  0  0  0  0  0  0  0  0  0
   -6.1831  -19.4740   26.7847 H   0  0  0  0  0  0  0  0  0  0  0  0
    3.9427  -14.6390   26.0096 H   0  0  0  0  0  0  0  0  0  0  0  0
    7.6450  -14.2000   26.2659 H   0  0  0  0  0  0  0  0  0  0  0  0
    9.1228  -12.3209   25.4327 H   0  0  0  0  0  0  0  0  0  0  0  0
    8.4493   -9.9823   26.4208 H   0  0  0  0  0  0  0  0  0  0  0  0
  1  2  1  0
  2  3  1  0
  3  4  1  0
  4  5  1  0
  5  6  2  0
  5  7  1  0
  7  8  2  0
  8  9  1  0
  9 10  2  0
 10 11  1  0
 11 12  1  0
 12 13  2  0
 13 14  1  0
 14 15  2  0
  2 16  1  0
 16 17  1  0
 17 18  2  0
 17 19  1  0
 19 20  2  0
 20 21  1  0
 21 22  2  0
 22 23  1  0
 15  7  1  0
 23 19  1  0
 14 10  1  0
  1 24  1  0
  1 25  1  0
  1 26  1  0
  2 27  1  0
  3 28  1  0
  3 29  1  0
  4 30  1  0
  8 31  1  0
  9 32  1  0
 11 33  1  0
 12 34  1  0
 15 35  1  0
 16 36  1  0
 20 37  1  0
 21 38  1  0
 22 39  1  0
M  END
>  <Energy>  (171) 
1004.3506599286364

>  <compound_id>  (171) 
4837

>  <target_id>  (171) 
1

>  <reference_id>  (171) 
94

>  <inspiration_ids>  (171) 
[94, 66]

>  <energy_score>  (171) 
956.3682177721473

>  <distance_score>  (171) 
13.662538290917864

>  <path>  (171) 
/opt/xchem-fragalysis-2/maxwin/BulkDock/SCRATCH/511016/C4837-P94/C4837-P94.minimised.mol

>  <scratch_subdir>  (171) 
/opt/xchem-fragalysis-2/maxwin/BulkDock/SCRATCH/511016/C4837-P94

>  <fragmenstein_runtime>  (171) 
34.01703763008118

>  <fragmenstein_outcome>  (171) 
too moved

>  <fragmenstein_mode>  (171) 
expansion

>  <fragmenstein_error>  (171) 


$$$$
C4837-P66
     RDKit          3D

 39 41  0  0  0  0  0  0  0  0999 V2000
   -3.2745  -15.6015   24.4713 C   0  0  0  0  0  0  0  0  0  0  0  0
   -2.4920  -15.6053   25.6938 C   0  0  0  0  0  0  0  0  0  0  0  0
   -3.5932  -16.9820   27.1401 C   0  0  0  0  0  0  0  0  0  0  0  0
   -5.2455  -18.3746   27.4518 N   0  0  0  0  0  0  0  0  0  0  0  0
   -6.9784  -18.2107   28.3180 C   0  0  0  0  0  0  0  0  0  0  0  0
   -7.2276  -17.1667   28.8949 O   0  0  0  0  0  0  0  0  0  0  0  0
   -8.6725  -19.4551   28.3462 C   0  0  0  0  0  0  0  0  0  0  0  0
   -9.3437  -20.8805   27.6786 C   0  0  0  0  0  0  0  0  0  0  0  0
  -10.5040  -22.2643   27.8679 C   0  0  0  0  0  0  0  0  0  0  0  0
  -11.3598  -22.4037   28.9046 C   0  0  0  0  0  0  0  0  0  0  0  0
  -11.9028  -23.4090   29.6354 N   0  0  0  0  0  0  0  0  0  0  0  0
  -12.0431  -22.9313   30.9140 C   0  0  0  0  0  0  0  0  0  0  0  0
  -11.7658  -21.6514   30.9758 N   0  0  0  0  0  0  0  0  0  0  0  0
  -11.2485  -21.3642   29.7341 C   0  0  0  0  0  0  0  0  0  0  0  0
  -10.1127  -20.3842   29.3371 C   0  0  0  0  0  0  0  0  0  0  0  0
   -0.9592  -14.7435   24.5363 N   0  0  0  0  0  0  0  0  0  0  0  0
    0.7385  -13.8400   25.0364 C   0  0  0  0  0  0  0  0  0  0  0  0
    0.9701  -13.6350   26.2306 O   0  0  0  0  0  0  0  0  0  0  0  0
    2.1664  -13.0560   23.9774 C   0  0  0  0  0  0  0  0  0  0  0  0
    2.5292  -11.7367   23.6563 C   0  0  0  0  0  0  0  0  0  0  0  0
    3.5267  -10.4288   22.7249 C   0  0  0  0  0  0  0  0  0  0  0  0
    4.4442  -11.1690   22.1852 C   0  0  0  0  0  0  0  0  0  0  0  0
    3.3890  -12.7009   22.1580 S   0  0  0  0  0  0  0  0  0  0  0  0
   -4.2846  -15.7199   24.7040 H   0  0  0  0  0  0  0  0  0  0  0  0
   -2.6125  -15.4833   23.7246 H   0  0  0  0  0  0  0  0  0  0  0  0
   -3.7356  -14.9389   23.7389 H   0  0  0  0  0  0  0  0  0  0  0  0
   -2.4222  -14.6858   26.2948 H   0  0  0  0  0  0  0  0  0  0  0  0
   -3.5192  -16.4566   28.0906 H   0  0  0  0  0  0  0  0  0  0  0  0
   -2.7334  -17.6704   27.1848 H   0  0  0  0  0  0  0  0  0  0  0  0
   -5.2211  -19.2614   26.9425 H   0  0  0  0  0  0  0  0  0  0  0  0
   -8.2221  -21.3480   27.4100 H   0  0  0  0  0  0  0  0  0  0  0  0
  -10.2700  -23.2076   27.3507 H   0  0  0  0  0  0  0  0  0  0  0  0
  -12.0357  -24.3610   29.3376 H   0  0  0  0  0  0  0  0  0  0  0  0
  -12.3222  -23.5505   31.7561 H   0  0  0  0  0  0  0  0  0  0  0  0
  -10.2625  -20.2754   30.4491 H   0  0  0  0  0  0  0  0  0  0  0  0
   -1.0334  -14.7598   23.5278 H   0  0  0  0  0  0  0  0  0  0  0  0
    3.3516  -12.3074   24.1366 H   0  0  0  0  0  0  0  0  0  0  0  0
    3.3384   -9.3617   22.5895 H   0  0  0  0  0  0  0  0  0  0  0  0
    5.2892  -10.9942   21.5135 H   0  0  0  0  0  0  0  0  0  0  0  0
  1  2  1  0
  2  3  1  0
  3  4  1  0
  4  5  1  0
  5  6  2  0
  5  7  1  0
  7  8  2  0
  8  9  1  0
  9 10  2  0
 10 11  1  0
 11 12  1  0
 12 13  2  0
 13 14  1  0
 14 15  2  0
  2 16  1  0
 16 17  1  0
 17 18  2  0
 17 19  1  0
 19 20  2  0
 20 21  1  0
 21 22  2  0
 22 23  1  0
 15  7  1  0
 23 19  1  0
 14 10  1  0
  1 24  1  0
  1 25  1  0
  1 26  1  0
  2 27  1  0
  3 28  1  0
  3 29  1  0
  4 30  1  0
  8 31  1  0
  9 32  1  0
 11 33  1  0
 12 34  1  0
 15 35  1  0
 16 36  1  0
 20 37  1  0
 21 38  1  0
 22 39  1  0
M  END
>  <Energy>  (172) 
1790.27644509678

>  <compound_id>  (172) 
4837

>  <target_id>  (172) 
1

>  <reference_id>  (172) 
66

>  <inspiration_ids>  (172) 
[94, 66]

>  <energy_score>  (172) 
1742.2940029403173

>  <distance_score>  (172) 
12.647176935831153

>  <path>  (172) 
/opt/xchem-fragalysis-2/maxwin/BulkDock/SCRATCH/511016/C4837-P66/C4837-P66.minimised.mol

>  <scratch_subdir>  (172) 
/opt/xchem-fragalysis-2/maxwin/BulkDock/SCRATCH/511016/C4837-P66

>  <fragmenstein_runtime>  (172) 
33.99073576927185

>  <fragmenstein_outcome>  (172) 
too moved

>  <fragmenstein_mode>  (172) 
expansion

>  <fragmenstein_error>  (172) 


$$$$
C4838-P94
     RDKit          3D

 42 44  0  0  0  0  0  0  0  0999 V2000
   -4.9591  -18.7385   17.7196 C   0  0  0  0  0  0  0  0  0  0  0  0
   -3.8238  -18.1588   18.4651 C   0  0  0  0  0  0  0  0  0  0  0  0
   -3.3181  -16.9481   18.3596 N   0  0  0  0  0  0  0  0  0  0  0  0
   -2.2798  -16.8221   19.2633 C   0  0  0  0  0  0  0  0  0  0  0  0
   -1.2259  -15.8895   19.6684 C   0  0  0  0  0  0  0  0  0  0  0  0
    0.4714  -16.0995   20.2524 C   0  0  0  0  0  0  0  0  0  0  0  0
    2.1718  -14.9581   19.8381 C   0  0  0  0  0  0  0  0  0  0  0  0
    2.4456  -15.0441   18.6407 O   0  0  0  0  0  0  0  0  0  0  0  0
    3.0096  -13.9099   20.9514 N   0  0  0  0  0  0  0  0  0  0  0  0
    4.3528  -12.9282   20.7482 C   0  0  0  0  0  0  0  0  0  0  0  0
    4.4583  -11.5056   21.9054 C   0  0  0  0  0  0  0  0  0  0  0  0
    3.2160  -12.3604   23.0588 C   0  0  0  0  0  0  0  0  0  0  0  0
    5.9848  -10.9312   21.6743 N   0  0  0  0  0  0  0  0  0  0  0  0
    6.8145  -10.0762   22.5028 C   0  0  0  0  0  0  0  0  0  0  0  0
    6.6279   -9.6373   23.6004 O   0  0  0  0  0  0  0  0  0  0  0  0
    8.0772   -9.7166   21.8347 C   0  0  0  0  0  0  0  0  0  0  0  0
    8.8136  -10.3659   20.8612 C   0  0  0  0  0  0  0  0  0  0  0  0
   10.0928   -9.7737   20.6686 C   0  0  0  0  0  0  0  0  0  0  0  0
   10.2662   -8.6437   21.4320 C   0  0  0  0  0  0  0  0  0  0  0  0
    8.8708   -8.2597   22.3213 S   0  0  0  0  0  0  0  0  0  0  0  0
    0.0300  -17.1473   20.9400 C   0  0  0  0  0  0  0  0  0  0  0  0
   -1.2193  -17.9286   20.8676 C   0  0  0  0  0  0  0  0  0  0  0  0
   -2.1765  -17.9790   19.8848 C   0  0  0  0  0  0  0  0  0  0  0  0
   -3.0787  -18.8628   19.3538 N   0  0  0  0  0  0  0  0  0  0  0  0
   -4.6153  -19.5331   17.0504 H   0  0  0  0  0  0  0  0  0  0  0  0
   -5.4531  -17.9721   17.1146 H   0  0  0  0  0  0  0  0  0  0  0  0
   -5.6997  -19.1577   18.4076 H   0  0  0  0  0  0  0  0  0  0  0  0
   -1.4734  -15.0195   19.0585 H   0  0  0  0  0  0  0  0  0  0  0  0
    2.6696  -14.0776   21.8593 H   0  0  0  0  0  0  0  0  0  0  0  0
    4.3437  -12.7548   19.6564 H   0  0  0  0  0  0  0  0  0  0  0  0
    5.3264  -13.4082   20.7253 H   0  0  0  0  0  0  0  0  0  0  0  0
    4.8329  -11.1264   22.8225 H   0  0  0  0  0  0  0  0  0  0  0  0
    3.2798  -13.4132   23.3078 H   0  0  0  0  0  0  0  0  0  0  0  0
    2.7694  -12.1215   24.0090 H   0  0  0  0  0  0  0  0  0  0  0  0
    2.2792  -11.9136   22.7635 H   0  0  0  0  0  0  0  0  0  0  0  0
    6.4212  -11.0368   20.7672 H   0  0  0  0  0  0  0  0  0  0  0  0
    8.5173  -11.2928   20.3860 H   0  0  0  0  0  0  0  0  0  0  0  0
   10.8524  -10.1929   20.0214 H   0  0  0  0  0  0  0  0  0  0  0  0
   11.1400   -8.0121   21.5113 H   0  0  0  0  0  0  0  0  0  0  0  0
    0.6556  -17.8821   21.3628 H   0  0  0  0  0  0  0  0  0  0  0  0
   -1.1722  -18.6640   21.6265 H   0  0  0  0  0  0  0  0  0  0  0  0
   -3.1775  -19.8439   19.5784 H   0  0  0  0  0  0  0  0  0  0  0  0
  1  2  1  0
  2  3  2  0
  3  4  1  0
  4  5  2  0
  5  6  1  0
  6  7  1  0
  7  8  2  0
  7  9  1  0
  9 10  1  0
 10 11  1  0
 11 12  1  0
 11 13  1  0
 13 14  1  0
 14 15  2  0
 14 16  1  0
 16 17  2  0
 17 18  1  0
 18 19  2  0
 19 20  1  0
  6 21  2  0
 21 22  1  0
 22 23  2  0
 23 24  1  0
 24  2  1  0
 23  4  1  0
 20 16  1  0
  1 25  1  0
  1 26  1  0
  1 27  1  0
  5 28  1  0
  9 29  1  0
 10 30  1  0
 10 31  1  0
 11 32  1  0
 12 33  1  0
 12 34  1  0
 12 35  1  0
 13 36  1  0
 17 37  1  0
 18 38  1  0
 19 39  1  0
 21 40  1  0
 22 41  1  0
 24 42  1  0
M  END
>  <Energy>  (173) 
533.85338505394191

>  <compound_id>  (173) 
4838

>  <target_id>  (173) 
1

>  <reference_id>  (173) 
94

>  <inspiration_ids>  (173) 
[94, 66]

>  <energy_score>  (173) 
497.6780583989188

>  <distance_score>  (173) 
14.59271977267882

>  <path>  (173) 
/opt/xchem-fragalysis-2/maxwin/BulkDock/SCRATCH/511016/C4838-P94/C4838-P94.minimised.mol

>  <scratch_subdir>  (173) 
/opt/xchem-fragalysis-2/maxwin/BulkDock/SCRATCH/511016/C4838-P94

>  <fragmenstein_runtime>  (173) 
35.74188232421875

>  <fragmenstein_outcome>  (173) 
too moved

>  <fragmenstein_mode>  (173) 
expansion

>  <fragmenstein_error>  (173) 


$$$$
C4838-P66
     RDKit          3D

 42 44  0  0  0  0  0  0  0  0999 V2000
   -6.6399  -22.0436   26.9766 C   0  0  0  0  0  0  0  0  0  0  0  0
   -5.9460  -20.7282   27.0657 C   0  0  0  0  0  0  0  0  0  0  0  0
   -4.6842  -20.8597   27.2423 N   0  0  0  0  0  0  0  0  0  0  0  0
   -4.2019  -19.7368   27.7931 C   0  0  0  0  0  0  0  0  0  0  0  0
   -2.9424  -19.0477   27.3692 C   0  0  0  0  0  0  0  0  0  0  0  0
   -3.0701  -17.3815   27.3155 C   0  0  0  0  0  0  0  0  0  0  0  0
   -2.3058  -16.9535   26.1074 C   0  0  0  0  0  0  0  0  0  0  0  0
   -1.6724  -17.8894   25.6958 O   0  0  0  0  0  0  0  0  0  0  0  0
   -2.0177  -15.1961   25.2827 N   0  0  0  0  0  0  0  0  0  0  0  0
   -0.6616  -14.5598   23.9028 C   0  0  0  0  0  0  0  0  0  0  0  0
    1.4627  -14.5080   23.4121 C   0  0  0  0  0  0  0  0  0  0  0  0
    2.2612  -13.1208   24.1682 C   0  0  0  0  0  0  0  0  0  0  0  0
    2.8558  -14.4294   21.9105 N   0  0  0  0  0  0  0  0  0  0  0  0
    3.9216  -13.1218   21.3786 C   0  0  0  0  0  0  0  0  0  0  0  0
    3.9964  -12.0856   21.9734 O   0  0  0  0  0  0  0  0  0  0  0  0
    5.0000  -13.0888   20.0214 C   0  0  0  0  0  0  0  0  0  0  0  0
    6.2522  -12.4111   20.0482 C   0  0  0  0  0  0  0  0  0  0  0  0
    6.8701  -12.1774   18.7819 C   0  0  0  0  0  0  0  0  0  0  0  0
    6.0946  -12.6537   17.7596 C   0  0  0  0  0  0  0  0  0  0  0  0
    4.6372  -13.3563   18.3164 S   0  0  0  0  0  0  0  0  0  0  0  0
   -3.9535  -16.9529   28.3456 C   0  0  0  0  0  0  0  0  0  0  0  0
   -5.0380  -17.8209   29.1932 C   0  0  0  0  0  0  0  0  0  0  0  0
   -5.2527  -19.0401   28.4435 C   0  0  0  0  0  0  0  0  0  0  0  0
   -6.3265  -19.4824   27.6272 N   0  0  0  0  0  0  0  0  0  0  0  0
   -7.6340  -22.0268   27.3894 H   0  0  0  0  0  0  0  0  0  0  0  0
   -6.5693  -22.5054   25.9901 H   0  0  0  0  0  0  0  0  0  0  0  0
   -6.0908  -22.7429   27.6155 H   0  0  0  0  0  0  0  0  0  0  0  0
   -2.1565  -19.5092   26.8180 H   0  0  0  0  0  0  0  0  0  0  0  0
   -2.5470  -14.5125   25.7862 H   0  0  0  0  0  0  0  0  0  0  0  0
   -0.9665  -13.7286   24.4284 H   0  0  0  0  0  0  0  0  0  0  0  0
    0.1084  -14.3323   24.5929 H   0  0  0  0  0  0  0  0  0  0  0  0
    2.0030  -15.3715   23.6222 H   0  0  0  0  0  0  0  0  0  0  0  0
    2.2571  -12.1809   23.6192 H   0  0  0  0  0  0  0  0  0  0  0  0
    1.7807  -13.0058   25.1387 H   0  0  0  0  0  0  0  0  0  0  0  0
    3.2870  -13.4496   24.2638 H   0  0  0  0  0  0  0  0  0  0  0  0
    2.8782  -15.1396   21.2396 H   0  0  0  0  0  0  0  0  0  0  0  0
    6.6721  -12.0143   20.9609 H   0  0  0  0  0  0  0  0  0  0  0  0
    7.8134  -11.6656   18.6360 H   0  0  0  0  0  0  0  0  0  0  0  0
    6.2998  -12.6090   16.6989 H   0  0  0  0  0  0  0  0  0  0  0  0
   -4.4085  -17.5285   27.5431 H   0  0  0  0  0  0  0  0  0  0  0  0
   -5.7754  -17.3009   29.7946 H   0  0  0  0  0  0  0  0  0  0  0  0
   -7.2477  -19.1798   27.8784 H   0  0  0  0  0  0  0  0  0  0  0  0
  1  2  1  0
  2  3  2  0
  3  4  1  0
  4  5  2  0
  5  6  1  0
  6  7  1  0
  7  8  2  0
  7  9  1  0
  9 10  1  0
 10 11  1  0
 11 12  1  0
 11 13  1  0
 13 14  1  0
 14 15  2  0
 14 16  1  0
 16 17  2  0
 17 18  1  0
 18 19  2  0
 19 20  1  0
  6 21  2  0
 21 22  1  0
 22 23  2  0
 23 24  1  0
 24  2  1  0
 23  4  1  0
 20 16  1  0
  1 25  1  0
  1 26  1  0
  1 27  1  0
  5 28  1  0
  9 29  1  0
 10 30  1  0
 10 31  1  0
 11 32  1  0
 12 33  1  0
 12 34  1  0
 12 35  1  0
 13 36  1  0
 17 37  1  0
 18 38  1  0
 19 39  1  0
 21 40  1  0
 22 41  1  0
 24 42  1  0
M  END
>  <Energy>  (174) 
897.0457464018142

>  <compound_id>  (174) 
4838

>  <target_id>  (174) 
1

>  <reference_id>  (174) 
66

>  <inspiration_ids>  (174) 
[94, 66]

>  <energy_score>  (174) 
860.8704197467739

>  <distance_score>  (174) 
12.260896882948508

>  <path>  (174) 
/opt/xchem-fragalysis-2/maxwin/BulkDock/SCRATCH/511016/C4838-P66/C4838-P66.minimised.mol

>  <scratch_subdir>  (174) 
/opt/xchem-fragalysis-2/maxwin/BulkDock/SCRATCH/511016/C4838-P66

>  <fragmenstein_runtime>  (174) 
27.790589809417725

>  <fragmenstein_outcome>  (174) 
too moved

>  <fragmenstein_mode>  (174) 
expansion

>  <fragmenstein_error>  (174) 


$$$$
C4839-P94
     RDKit          3D

 42 44  0  0  0  0  0  0  0  0999 V2000
    2.1236  -12.1317   23.5614 C   0  0  0  0  0  0  0  0  0  0  0  0
    0.4334  -11.9213   22.7734 C   0  0  0  0  0  0  0  0  0  0  0  0
   -0.3435  -13.8663   23.2743 C   0  0  0  0  0  0  0  0  0  0  0  0
   -1.2933  -15.2281   24.2421 N   0  0  0  0  0  0  0  0  0  0  0  0
   -2.1450  -15.1709   25.4916 C   0  0  0  0  0  0  0  0  0  0  0  0
   -2.4899  -14.2282   26.1030 O   0  0  0  0  0  0  0  0  0  0  0  0
   -2.5989  -16.9988   26.2834 C   0  0  0  0  0  0  0  0  0  0  0  0
   -3.5594  -17.3063   27.4031 C   0  0  0  0  0  0  0  0  0  0  0  0
   -4.7887  -18.6913   27.5944 C   0  0  0  0  0  0  0  0  0  0  0  0
   -4.1710  -20.0063   27.1592 C   0  0  0  0  0  0  0  0  0  0  0  0
   -2.7584  -19.8869   26.8113 C   0  0  0  0  0  0  0  0  0  0  0  0
   -2.0092  -18.3937   26.3544 C   0  0  0  0  0  0  0  0  0  0  0  0
   -2.2442  -21.1009   27.2763 N   0  0  0  0  0  0  0  0  0  0  0  0
   -3.2516  -21.9484   27.3729 C   0  0  0  0  0  0  0  0  0  0  0  0
   -4.4375  -21.3323   27.1250 N   0  0  0  0  0  0  0  0  0  0  0  0
   -5.6658  -21.9998   26.8045 C   0  0  0  0  0  0  0  0  0  0  0  0
    0.4181  -10.6576   21.5887 N   0  0  0  0  0  0  0  0  0  0  0  0
   -0.6292   -9.7866   21.1493 C   0  0  0  0  0  0  0  0  0  0  0  0
   -1.7927   -9.7598   21.4304 O   0  0  0  0  0  0  0  0  0  0  0  0
    0.0084   -8.7490   20.2810 C   0  0  0  0  0  0  0  0  0  0  0  0
    0.3289   -8.7782   18.9302 C   0  0  0  0  0  0  0  0  0  0  0  0
    1.1382   -7.6712   18.5070 C   0  0  0  0  0  0  0  0  0  0  0  0
    1.4029   -6.8080   19.5438 C   0  0  0  0  0  0  0  0  0  0  0  0
    0.6797   -7.3326   21.0095 S   0  0  0  0  0  0  0  0  0  0  0  0
    1.9229  -11.9433   24.5833 H   0  0  0  0  0  0  0  0  0  0  0  0
    2.5812  -13.1353   23.6519 H   0  0  0  0  0  0  0  0  0  0  0  0
    2.8339  -11.5896   22.9925 H   0  0  0  0  0  0  0  0  0  0  0  0
    0.1098  -10.9545   23.0821 H   0  0  0  0  0  0  0  0  0  0  0  0
    0.6321  -14.2045   23.6849 H   0  0  0  0  0  0  0  0  0  0  0  0
   -0.7801  -13.7917   24.2891 H   0  0  0  0  0  0  0  0  0  0  0  0
   -1.2526  -16.1081   23.9457 H   0  0  0  0  0  0  0  0  0  0  0  0
   -3.6647  -16.4817   28.1031 H   0  0  0  0  0  0  0  0  0  0  0  0
   -5.7347  -18.6141   28.1315 H   0  0  0  0  0  0  0  0  0  0  0  0
   -0.9353  -18.4779   26.2851 H   0  0  0  0  0  0  0  0  0  0  0  0
   -3.1648  -23.0058   27.5812 H   0  0  0  0  0  0  0  0  0  0  0  0
   -5.8141  -22.8235   27.4938 H   0  0  0  0  0  0  0  0  0  0  0  0
   -6.4882  -21.2951   26.8716 H   0  0  0  0  0  0  0  0  0  0  0  0
   -5.5827  -22.3837   25.7843 H   0  0  0  0  0  0  0  0  0  0  0  0
    1.3067  -10.3307   21.2047 H   0  0  0  0  0  0  0  0  0  0  0  0
    0.0262   -9.5892   18.2796 H   0  0  0  0  0  0  0  0  0  0  0  0
    1.5018   -7.5291   17.4971 H   0  0  0  0  0  0  0  0  0  0  0  0
    1.9801   -5.8946   19.5227 H   0  0  0  0  0  0  0  0  0  0  0  0
  1  2  1  0
  2  3  1  0
  3  4  1  0
  4  5  1  0
  5  6  2  0
  5  7  1  0
  7  8  2  0
  8  9  1  0
  9 10  2  0
 10 11  1  0
 11 12  2  0
 11 13  1  0
 13 14  2  0
 14 15  1  0
 15 16  1  0
  2 17  1  0
 17 18  1  0
 18 19  2  0
 18 20  1  0
 20 21  2  0
 21 22  1  0
 22 23  2  0
 23 24  1  0
 12  7  1  0
 24 20  1  0
 15 10  1  0
  1 25  1  0
  1 26  1  0
  1 27  1  0
  2 28  1  0
  3 29  1  0
  3 30  1  0
  4 31  1  0
  8 32  1  0
  9 33  1  0
 12 34  1  0
 14 35  1  0
 16 36  1  0
 16 37  1  0
 16 38  1  0
 17 39  1  0
 21 40  1  0
 22 41  1  0
 23 42  1  0
M  END
>  <Energy>  (175) 
674.85417081268793

>  <compound_id>  (175) 
4839

>  <target_id>  (175) 
1

>  <reference_id>  (175) 
94

>  <inspiration_ids>  (175) 
[94, 66]

>  <energy_score>  (175) 
625.9208543021682

>  <distance_score>  (175) 
13.127482373630507

>  <path>  (175) 
/opt/xchem-fragalysis-2/maxwin/BulkDock/SCRATCH/511016/C4839-P94/C4839-P94.minimised.mol

>  <scratch_subdir>  (175) 
/opt/xchem-fragalysis-2/maxwin/BulkDock/SCRATCH/511016/C4839-P94

>  <fragmenstein_runtime>  (175) 
20.107228994369507

>  <fragmenstein_outcome>  (175) 
too moved

>  <fragmenstein_mode>  (175) 
expansion

>  <fragmenstein_error>  (175) 


$$$$
C4839-P66
     RDKit          3D

 42 44  0  0  0  0  0  0  0  0999 V2000
    3.8693  -14.3098   26.8811 C   0  0  0  0  0  0  0  0  0  0  0  0
    2.5073  -13.8994   27.4249 C   0  0  0  0  0  0  0  0  0  0  0  0
    1.7065  -15.7101   28.0503 C   0  0  0  0  0  0  0  0  0  0  0  0
    0.9535  -17.3338   27.6301 N   0  0  0  0  0  0  0  0  0  0  0  0
   -0.7535  -17.8200   27.3961 C   0  0  0  0  0  0  0  0  0  0  0  0
   -1.7058  -17.0603   27.4055 O   0  0  0  0  0  0  0  0  0  0  0  0
   -1.3699  -19.6051   27.2555 C   0  0  0  0  0  0  0  0  0  0  0  0
   -1.5437  -20.7349   28.2287 C   0  0  0  0  0  0  0  0  0  0  0  0
   -2.6317  -21.7335   28.2163 C   0  0  0  0  0  0  0  0  0  0  0  0
   -3.4879  -21.7274   27.1013 C   0  0  0  0  0  0  0  0  0  0  0  0
   -3.3115  -20.7603   26.1295 C   0  0  0  0  0  0  0  0  0  0  0  0
   -2.4525  -19.6684   26.4122 C   0  0  0  0  0  0  0  0  0  0  0  0
   -3.9445  -21.1062   24.9577 N   0  0  0  0  0  0  0  0  0  0  0  0
   -4.5051  -22.2574   25.2146 C   0  0  0  0  0  0  0  0  0  0  0  0
   -4.5686  -22.4268   26.5820 N   0  0  0  0  0  0  0  0  0  0  0  0
   -5.9280  -22.3706   27.0760 C   0  0  0  0  0  0  0  0  0  0  0  0
    3.0849  -12.2046   28.3791 N   0  0  0  0  0  0  0  0  0  0  0  0
    2.3215  -10.7852   28.5788 C   0  0  0  0  0  0  0  0  0  0  0  0
    1.1931  -10.4513   28.2720 O   0  0  0  0  0  0  0  0  0  0  0  0
    3.2591   -9.7318   29.1476 C   0  0  0  0  0  0  0  0  0  0  0  0
    2.9629   -8.4602   29.6186 C   0  0  0  0  0  0  0  0  0  0  0  0
    4.0698   -7.5426   29.5515 C   0  0  0  0  0  0  0  0  0  0  0  0
    5.2085   -8.1196   29.0424 C   0  0  0  0  0  0  0  0  0  0  0  0
    4.9647   -9.7662   28.6779 S   0  0  0  0  0  0  0  0  0  0  0  0
    4.0135  -15.3179   27.2207 H   0  0  0  0  0  0  0  0  0  0  0  0
    4.6077  -13.6247   27.3027 H   0  0  0  0  0  0  0  0  0  0  0  0
    4.0080  -14.3093   25.7929 H   0  0  0  0  0  0  0  0  0  0  0  0
    1.8030  -13.5546   26.6337 H   0  0  0  0  0  0  0  0  0  0  0  0
    1.1293  -15.6621   28.9708 H   0  0  0  0  0  0  0  0  0  0  0  0
    2.6593  -16.2479   28.0745 H   0  0  0  0  0  0  0  0  0  0  0  0
    1.5363  -18.1147   27.4976 H   0  0  0  0  0  0  0  0  0  0  0  0
   -0.9384  -20.7466   29.1364 H   0  0  0  0  0  0  0  0  0  0  0  0
   -2.7325  -22.4535   29.0202 H   0  0  0  0  0  0  0  0  0  0  0  0
   -2.3648  -18.8105   25.7688 H   0  0  0  0  0  0  0  0  0  0  0  0
   -5.0523  -22.8761   24.5142 H   0  0  0  0  0  0  0  0  0  0  0  0
   -6.5878  -22.8425   26.3476 H   0  0  0  0  0  0  0  0  0  0  0  0
   -5.9770  -22.9012   28.0049 H   0  0  0  0  0  0  0  0  0  0  0  0
   -6.2157  -21.3217   27.1140 H   0  0  0  0  0  0  0  0  0  0  0  0
    4.0375  -12.1506   28.8055 H   0  0  0  0  0  0  0  0  0  0  0  0
    1.9593   -8.1752   29.9160 H   0  0  0  0  0  0  0  0  0  0  0  0
    4.0135   -6.5039   29.8565 H   0  0  0  0  0  0  0  0  0  0  0  0
    6.1749   -7.6575   28.8897 H   0  0  0  0  0  0  0  0  0  0  0  0
  1  2  1  0
  2  3  1  0
  3  4  1  0
  4  5  1  0
  5  6  2  0
  5  7  1  0
  7  8  2  0
  8  9  1  0
  9 10  2  0
 10 11  1  0
 11 12  2  0
 11 13  1  0
 13 14  2  0
 14 15  1  0
 15 16  1  0
  2 17  1  0
 17 18  1  0
 18 19  2  0
 18 20  1  0
 20 21  2  0
 21 22  1  0
 22 23  2  0
 23 24  1  0
 12  7  1  0
 24 20  1  0
 15 10  1  0
  1 25  1  0
  1 26  1  0
  1 27  1  0
  2 28  1  0
  3 29  1  0
  3 30  1  0
  4 31  1  0
  8 32  1  0
  9 33  1  0
 12 34  1  0
 14 35  1  0
 16 36  1  0
 16 37  1  0
 16 38  1  0
 17 39  1  0
 21 40  1  0
 22 41  1  0
 23 42  1  0
M  END
>  <Energy>  (176) 
448.5159204742485

>  <compound_id>  (176) 
4839

>  <target_id>  (176) 
1

>  <reference_id>  (176) 
66

>  <inspiration_ids>  (176) 
[94, 66]

>  <energy_score>  (176) 
399.5826039637079

>  <distance_score>  (176) 
14.543964299944577

>  <path>  (176) 
/opt/xchem-fragalysis-2/maxwin/BulkDock/SCRATCH/511016/C4839-P66/C4839-P66.minimised.mol

>  <scratch_subdir>  (176) 
/opt/xchem-fragalysis-2/maxwin/BulkDock/SCRATCH/511016/C4839-P66

>  <fragmenstein_runtime>  (176) 
22.948119640350342

>  <fragmenstein_outcome>  (176) 
too moved

>  <fragmenstein_mode>  (176) 
expansion

>  <fragmenstein_error>  (176) 


$$$$
C4840-P94
     RDKit          3D

 39 41  0  0  0  0  0  0  0  0999 V2000
   -1.8216   -6.0371   21.0096 C   0  0  0  0  0  0  0  0  0  0  0  0
   -1.5860   -7.7319   20.7352 C   0  0  0  0  0  0  0  0  0  0  0  0
    0.1926   -7.7132   20.4563 C   0  0  0  0  0  0  0  0  0  0  0  0
    0.8267   -7.9932   19.2503 C   0  0  0  0  0  0  0  0  0  0  0  0
    2.2193   -7.6560   19.2555 C   0  0  0  0  0  0  0  0  0  0  0  0
    2.6145   -7.1261   20.4619 C   0  0  0  0  0  0  0  0  0  0  0  0
    1.3112   -7.0196   21.5753 S   0  0  0  0  0  0  0  0  0  0  0  0
   -2.8683   -8.7110   21.9142 N   0  0  0  0  0  0  0  0  0  0  0  0
   -1.8072   -8.3391   21.2761 C   0  0  0  0  0  0  0  0  0  0  0  0
   -4.4589   -8.9591   21.5056 C   0  0  0  0  0  0  0  0  0  0  0  0
   -5.0530   -8.7532   20.5298 O   0  0  0  0  0  0  0  0  0  0  0  0
   -5.2051   -9.5183   22.8246 C   0  0  0  0  0  0  0  0  0  0  0  0
   -6.8142  -10.4632   22.4815 S   0  0  0  0  0  0  0  0  0  0  0  0
   -7.1861  -11.7860   23.6396 C   0  0  0  0  0  0  0  0  0  0  0  0
   -7.3619  -11.7844   24.9496 N   0  0  0  0  0  0  0  0  0  0  0  0
   -8.0072  -12.9881   25.2682 C   0  0  0  0  0  0  0  0  0  0  0  0
   -8.4709  -13.5007   26.4994 C   0  0  0  0  0  0  0  0  0  0  0  0
   -9.1419  -14.7396   26.5358 C   0  0  0  0  0  0  0  0  0  0  0  0
   -9.3414  -15.4718   25.3666 C   0  0  0  0  0  0  0  0  0  0  0  0
   -8.8831  -14.9899   24.1320 C   0  0  0  0  0  0  0  0  0  0  0  0
   -8.2223  -13.7472   24.1239 C   0  0  0  0  0  0  0  0  0  0  0  0
   -7.6835  -12.9691   23.1176 N   0  0  0  0  0  0  0  0  0  0  0  0
   -2.8944   -5.8296   20.9392 H   0  0  0  0  0  0  0  0  0  0  0  0
   -1.2812   -5.4650   20.2497 H   0  0  0  0  0  0  0  0  0  0  0  0
   -1.4697   -5.7690   22.0109 H   0  0  0  0  0  0  0  0  0  0  0  0
   -2.0272   -7.7317   19.5952 H   0  0  0  0  0  0  0  0  0  0  0  0
    0.3101   -8.4014   18.3900 H   0  0  0  0  0  0  0  0  0  0  0  0
    2.8894   -7.8072   18.4185 H   0  0  0  0  0  0  0  0  0  0  0  0
    3.6020   -6.7970   20.7520 H   0  0  0  0  0  0  0  0  0  0  0  0
   -0.9775   -9.2149   21.6412 H   0  0  0  0  0  0  0  0  0  0  0  0
   -2.0010   -9.4176   20.6215 H   0  0  0  0  0  0  0  0  0  0  0  0
   -1.4141   -8.0683   22.4437 H   0  0  0  0  0  0  0  0  0  0  0  0
   -4.4983  -10.0962   23.4012 H   0  0  0  0  0  0  0  0  0  0  0  0
   -5.4896   -8.6331   23.4023 H   0  0  0  0  0  0  0  0  0  0  0  0
   -8.3111  -12.9253   27.4065 H   0  0  0  0  0  0  0  0  0  0  0  0
   -9.5004  -15.1194   27.4896 H   0  0  0  0  0  0  0  0  0  0  0  0
   -9.8661  -16.4202   25.4138 H   0  0  0  0  0  0  0  0  0  0  0  0
   -9.0485  -15.5469   23.2162 H   0  0  0  0  0  0  0  0  0  0  0  0
   -7.7357  -13.1522   22.1294 H   0  0  0  0  0  0  0  0  0  0  0  0
  1  2  1  0
  2  3  1  0
  3  4  2  0
  4  5  1  0
  5  6  2  0
  6  7  1  0
  2  8  1  0
  8  9  1  0
  8 10  1  0
 10 11  2  0
 10 12  1  0
 12 13  1  0
 13 14  1  0
 14 15  2  0
 15 16  1  0
 16 17  2  0
 17 18  1  0
 18 19  2  0
 19 20  1  0
 20 21  2  0
 21 22  1  0
  7  3  1  0
 22 14  1  0
 21 16  1  0
  1 23  1  0
  1 24  1  0
  1 25  1  0
  2 26  1  0
  4 27  1  0
  5 28  1  0
  6 29  1  0
  9 30  1  0
  9 31  1  0
  9 32  1  0
 12 33  1  0
 12 34  1  0
 17 35  1  0
 18 36  1  0
 19 37  1  0
 20 38  1  0
 22 39  1  0
M  END
>  <Energy>  (177) 
815.43212073395262

>  <compound_id>  (177) 
4840

>  <target_id>  (177) 
1

>  <reference_id>  (177) 
94

>  <inspiration_ids>  (177) 
[94, 66]

>  <energy_score>  (177) 
762.4832452288957

>  <distance_score>  (177) 
14.539308049184852

>  <path>  (177) 
/opt/xchem-fragalysis-2/maxwin/BulkDock/SCRATCH/511016/C4840-P94/C4840-P94.minimised.mol

>  <scratch_subdir>  (177) 
/opt/xchem-fragalysis-2/maxwin/BulkDock/SCRATCH/511016/C4840-P94

>  <fragmenstein_runtime>  (177) 
34.250914573669434

>  <fragmenstein_outcome>  (177) 
too moved

>  <fragmenstein_mode>  (177) 
expansion

>  <fragmenstein_error>  (177) 


$$$$
C4840-P66
     RDKit          3D

 39 41  0  0  0  0  0  0  0  0999 V2000
    2.8436  -13.9148   27.0565 C   0  0  0  0  0  0  0  0  0  0  0  0
    1.0289  -13.4572   26.2529 C   0  0  0  0  0  0  0  0  0  0  0  0
    2.1170  -13.0998   24.6037 C   0  0  0  0  0  0  0  0  0  0  0  0
    2.9734  -13.7613   23.6407 C   0  0  0  0  0  0  0  0  0  0  0  0
    3.3853  -12.9053   22.1930 C   0  0  0  0  0  0  0  0  0  0  0  0
    3.5764  -11.7486   22.7517 C   0  0  0  0  0  0  0  0  0  0  0  0
    2.1110  -11.9405   23.5234 S   0  0  0  0  0  0  0  0  0  0  0  0
   -0.3490  -14.4330   27.6006 N   0  0  0  0  0  0  0  0  0  0  0  0
    0.7608  -13.7893   26.5470 C   0  0  0  0  0  0  0  0  0  0  0  0
   -2.1199  -15.1477   27.3727 C   0  0  0  0  0  0  0  0  0  0  0  0
   -2.4521  -14.9990   26.2569 O   0  0  0  0  0  0  0  0  0  0  0  0
   -3.6617  -16.1614   28.6411 C   0  0  0  0  0  0  0  0  0  0  0  0
   -6.0472  -16.6337   29.6316 S   0  0  0  0  0  0  0  0  0  0  0  0
   -7.7043  -18.1702   30.5827 C   0  0  0  0  0  0  0  0  0  0  0  0
   -8.3539  -19.1600   29.0751 N   0  0  0  0  0  0  0  0  0  0  0  0
   -9.9989  -20.3735   29.6895 C   0  0  0  0  0  0  0  0  0  0  0  0
  -10.8391  -21.4425   29.1617 C   0  0  0  0  0  0  0  0  0  0  0  0
  -11.6965  -22.1985   29.9878 C   0  0  0  0  0  0  0  0  0  0  0  0
  -11.8400  -22.0150   31.3717 C   0  0  0  0  0  0  0  0  0  0  0  0
  -11.1467  -21.0536   32.1182 C   0  0  0  0  0  0  0  0  0  0  0  0
  -10.2044  -20.2357   31.4721 C   0  0  0  0  0  0  0  0  0  0  0  0
   -9.0669  -18.9027   32.1335 N   0  0  0  0  0  0  0  0  0  0  0  0
    2.5298  -14.6399   27.8230 H   0  0  0  0  0  0  0  0  0  0  0  0
    3.6548  -14.6850   27.2009 H   0  0  0  0  0  0  0  0  0  0  0  0
    3.4235  -14.0475   26.1204 H   0  0  0  0  0  0  0  0  0  0  0  0
    0.6922  -14.0448   24.9284 H   0  0  0  0  0  0  0  0  0  0  0  0
    3.2480  -14.8064   23.6005 H   0  0  0  0  0  0  0  0  0  0  0  0
    3.7955  -13.3050   21.2663 H   0  0  0  0  0  0  0  0  0  0  0  0
    4.0699  -10.8400   22.3651 H   0  0  0  0  0  0  0  0  0  0  0  0
    1.1964  -14.9247   26.9249 H   0  0  0  0  0  0  0  0  0  0  0  0
    0.7459  -12.3032   27.0983 H   0  0  0  0  0  0  0  0  0  0  0  0
   -0.4907  -13.3570   25.8095 H   0  0  0  0  0  0  0  0  0  0  0  0
   -3.2938  -15.2795   29.3819 H   0  0  0  0  0  0  0  0  0  0  0  0
   -3.6038  -16.4987   29.6604 H   0  0  0  0  0  0  0  0  0  0  0  0
  -10.7631  -21.7492   28.1240 H   0  0  0  0  0  0  0  0  0  0  0  0
  -12.2393  -23.0177   29.5265 H   0  0  0  0  0  0  0  0  0  0  0  0
  -12.5444  -22.6544   31.9080 H   0  0  0  0  0  0  0  0  0  0  0  0
  -11.4192  -20.9068   33.1552 H   0  0  0  0  0  0  0  0  0  0  0  0
   -8.5093  -19.1470   32.9455 H   0  0  0  0  0  0  0  0  0  0  0  0
  1  2  1  0
  2  3  1  0
  3  4  2  0
  4  5  1  0
  5  6  2  0
  6  7  1  0
  2  8  1  0
  8  9  1  0
  8 10  1  0
 10 11  2  0
 10 12  1  0
 12 13  1  0
 13 14  1  0
 14 15  2  0
 15 16  1  0
 16 17  2  0
 17 18  1  0
 18 19  2  0
 19 20  1  0
 20 21  2  0
 21 22  1  0
  7  3  1  0
 22 14  1  0
 21 16  1  0
  1 23  1  0
  1 24  1  0
  1 25  1  0
  2 26  1  0
  4 27  1  0
  5 28  1  0
  6 29  1  0
  9 30  1  0
  9 31  1  0
  9 32  1  0
 12 33  1  0
 12 34  1  0
 17 35  1  0
 18 36  1  0
 19 37  1  0
 20 38  1  0
 22 39  1  0
M  END
>  <Energy>  (178) 
3031.9977026336637

>  <compound_id>  (178) 
4840

>  <target_id>  (178) 
1

>  <reference_id>  (178) 
66

>  <inspiration_ids>  (178) 
[94, 66]

>  <energy_score>  (178) 
2979.048827128654

>  <distance_score>  (178) 
13.29329090856889

>  <path>  (178) 
/opt/xchem-fragalysis-2/maxwin/BulkDock/SCRATCH/511016/C4840-P66/C4840-P66.minimised.mol

>  <scratch_subdir>  (178) 
/opt/xchem-fragalysis-2/maxwin/BulkDock/SCRATCH/511016/C4840-P66

>  <fragmenstein_runtime>  (178) 
23.725128173828125

>  <fragmenstein_outcome>  (178) 
too moved

>  <fragmenstein_mode>  (178) 
expansion

>  <fragmenstein_error>  (178) 


$$$$
C4841-P94
     RDKit          3D

 37 40  0  0  0  0  0  0  0  0999 V2000
    2.8096  -10.3585   31.2468 O   0  0  0  0  0  0  0  0  0  0  0  0
    2.2548  -11.0171   30.3735 C   0  0  0  0  0  0  0  0  0  0  0  0
    2.8630  -11.5220   28.8539 S   0  0  0  0  0  0  0  0  0  0  0  0
    2.8426  -10.0101   28.4859 C   0  0  0  0  0  0  0  0  0  0  0  0
    4.3281   -9.8342   28.6845 C   0  0  0  0  0  0  0  0  0  0  0  0
    5.5013   -9.5882   27.7442 C   0  0  0  0  0  0  0  0  0  0  0  0
    6.4897  -10.5091   27.3772 C   0  0  0  0  0  0  0  0  0  0  0  0
    7.4860  -10.0178   26.4625 C   0  0  0  0  0  0  0  0  0  0  0  0
    7.3200   -8.6841   26.1984 C   0  0  0  0  0  0  0  0  0  0  0  0
    6.0435   -8.0431   27.1200 S   0  0  0  0  0  0  0  0  0  0  0  0
    1.0720  -10.4225   29.0655 C   0  0  0  0  0  0  0  0  0  0  0  0
    0.1179   -9.9700   28.4333 O   0  0  0  0  0  0  0  0  0  0  0  0
    1.0213  -11.3905   30.1331 N   0  0  0  0  0  0  0  0  0  0  0  0
    0.0619  -12.6200   31.2957 C   0  0  0  0  0  0  0  0  0  0  0  0
   -0.1944  -14.0373   31.9174 C   0  0  0  0  0  0  0  0  0  0  0  0
   -1.3099  -14.1811   33.3262 C   0  0  0  0  0  0  0  0  0  0  0  0
   -1.3237  -13.7195   34.5779 N   0  0  0  0  0  0  0  0  0  0  0  0
   -2.3538  -14.4411   35.2684 C   0  0  0  0  0  0  0  0  0  0  0  0
   -2.8602  -14.3804   36.5753 C   0  0  0  0  0  0  0  0  0  0  0  0
   -3.9083  -15.2555   36.9642 C   0  0  0  0  0  0  0  0  0  0  0  0
   -4.4539  -16.1950   36.0873 C   0  0  0  0  0  0  0  0  0  0  0  0
   -3.9633  -16.2890   34.7948 C   0  0  0  0  0  0  0  0  0  0  0  0
   -2.9374  -15.3900   34.4600 C   0  0  0  0  0  0  0  0  0  0  0  0
   -2.2666  -15.1988   33.2959 N   0  0  0  0  0  0  0  0  0  0  0  0
    4.7624  -10.0932   29.6602 H   0  0  0  0  0  0  0  0  0  0  0  0
    6.4630  -11.5387   27.7169 H   0  0  0  0  0  0  0  0  0  0  0  0
    8.2812  -10.6216   26.0413 H   0  0  0  0  0  0  0  0  0  0  0  0
    7.9224   -8.0498   25.5615 H   0  0  0  0  0  0  0  0  0  0  0  0
    0.5507  -12.5381   32.2844 H   0  0  0  0  0  0  0  0  0  0  0  0
   -0.9398  -12.3928   31.0158 H   0  0  0  0  0  0  0  0  0  0  0  0
    0.8200  -14.2816   32.2304 H   0  0  0  0  0  0  0  0  0  0  0  0
   -0.5131  -14.8247   31.2251 H   0  0  0  0  0  0  0  0  0  0  0  0
   -2.4526  -13.6611   37.2769 H   0  0  0  0  0  0  0  0  0  0  0  0
   -4.2936  -15.1877   37.9797 H   0  0  0  0  0  0  0  0  0  0  0  0
   -5.2563  -16.8497   36.4168 H   0  0  0  0  0  0  0  0  0  0  0  0
   -4.3639  -17.0013   34.0822 H   0  0  0  0  0  0  0  0  0  0  0  0
   -2.4349  -15.7535   32.4706 H   0  0  0  0  0  0  0  0  0  0  0  0
  1  2  2  0
  2  3  1  0
  3  4  1  0
  4  5  2  3
  5  6  1  0
  6  7  2  0
  7  8  1  0
  8  9  2  0
  9 10  1  0
  4 11  1  0
 11 12  2  0
 11 13  1  0
 13 14  1  0
 14 15  1  0
 15 16  1  0
 16 17  2  0
 17 18  1  0
 18 19  2  0
 19 20  1  0
 20 21  2  0
 21 22  1  0
 22 23  2  0
 23 24  1  0
 13  2  1  0
 24 16  1  0
 10  6  1  0
 23 18  1  0
  5 25  1  0
  7 26  1  0
  8 27  1  0
  9 28  1  0
 14 29  1  0
 14 30  1  0
 15 31  1  0
 15 32  1  0
 19 33  1  0
 20 34  1  0
 21 35  1  0
 22 36  1  0
 24 37  1  0
M  END
>  <Energy>  (179) 
402.11522076751896

>  <compound_id>  (179) 
4841

>  <target_id>  (179) 
1

>  <reference_id>  (179) 
94

>  <inspiration_ids>  (179) 
[94, 66]

>  <energy_score>  (179) 
375.6870385829941

>  <distance_score>  (179) 
14.988543831017745

>  <path>  (179) 
/opt/xchem-fragalysis-2/maxwin/BulkDock/SCRATCH/511016/C4841-P94/C4841-P94.minimised.mol

>  <scratch_subdir>  (179) 
/opt/xchem-fragalysis-2/maxwin/BulkDock/SCRATCH/511016/C4841-P94

>  <fragmenstein_runtime>  (179) 
22.605091094970703

>  <fragmenstein_outcome>  (179) 
too moved

>  <fragmenstein_mode>  (179) 
expansion

>  <fragmenstein_error>  (179) 


$$$$
C4841-P66
     RDKit          3D

 37 40  0  0  0  0  0  0  0  0999 V2000
   -1.8680  -14.7777   21.2229 O   0  0  0  0  0  0  0  0  0  0  0  0
   -1.1274  -14.9093   22.2872 C   0  0  0  0  0  0  0  0  0  0  0  0
    0.0314  -14.0284   22.7771 S   0  0  0  0  0  0  0  0  0  0  0  0
    0.9193  -13.9753   24.0898 C   0  0  0  0  0  0  0  0  0  0  0  0
    2.2694  -12.9370   23.9950 C   0  0  0  0  0  0  0  0  0  0  0  0
    3.3899  -12.3715   22.6847 C   0  0  0  0  0  0  0  0  0  0  0  0
    3.8704  -12.9160   21.3536 C   0  0  0  0  0  0  0  0  0  0  0  0
    5.0943  -12.3697   20.5403 C   0  0  0  0  0  0  0  0  0  0  0  0
    5.4490  -11.1083   20.9493 C   0  0  0  0  0  0  0  0  0  0  0  0
    4.4312  -10.4878   22.2265 S   0  0  0  0  0  0  0  0  0  0  0  0
   -0.8980  -14.3521   24.5004 C   0  0  0  0  0  0  0  0  0  0  0  0
   -1.6302  -13.8532   25.3720 O   0  0  0  0  0  0  0  0  0  0  0  0
   -1.6505  -15.1243   23.5934 N   0  0  0  0  0  0  0  0  0  0  0  0
   -3.4520  -15.4795   23.3230 C   0  0  0  0  0  0  0  0  0  0  0  0
   -4.0568  -16.3544   21.5297 C   0  0  0  0  0  0  0  0  0  0  0  0
   -5.3936  -17.0622   20.4508 C   0  0  0  0  0  0  0  0  0  0  0  0
   -5.3315  -18.3362   20.0002 N   0  0  0  0  0  0  0  0  0  0  0  0
   -6.5045  -18.9454   20.4295 C   0  0  0  0  0  0  0  0  0  0  0  0
   -6.8277  -20.2983   20.6504 C   0  0  0  0  0  0  0  0  0  0  0  0
   -8.0880  -20.6209   21.1808 C   0  0  0  0  0  0  0  0  0  0  0  0
   -9.0168  -19.6168   21.4706 C   0  0  0  0  0  0  0  0  0  0  0  0
   -8.7152  -18.2650   21.2489 C   0  0  0  0  0  0  0  0  0  0  0  0
   -7.4464  -17.9784   20.7216 C   0  0  0  0  0  0  0  0  0  0  0  0
   -6.7833  -16.7899   20.3974 N   0  0  0  0  0  0  0  0  0  0  0  0
    1.9660  -12.0077   24.4218 H   0  0  0  0  0  0  0  0  0  0  0  0
    3.2338  -13.6399   20.8992 H   0  0  0  0  0  0  0  0  0  0  0  0
    5.4500  -12.8684   19.6455 H   0  0  0  0  0  0  0  0  0  0  0  0
    6.1881  -10.4524   20.5115 H   0  0  0  0  0  0  0  0  0  0  0  0
   -4.2214  -14.7633   23.5439 H   0  0  0  0  0  0  0  0  0  0  0  0
   -3.4023  -15.8479   24.3494 H   0  0  0  0  0  0  0  0  0  0  0  0
   -3.2367  -16.7292   20.8931 H   0  0  0  0  0  0  0  0  0  0  0  0
   -4.6161  -16.9960   22.1055 H   0  0  0  0  0  0  0  0  0  0  0  0
   -6.0956  -21.0677   20.4327 H   0  0  0  0  0  0  0  0  0  0  0  0
   -8.3406  -21.6633   21.3590 H   0  0  0  0  0  0  0  0  0  0  0  0
   -9.9928  -19.8915   21.8641 H   0  0  0  0  0  0  0  0  0  0  0  0
   -9.4308  -17.4809   21.4658 H   0  0  0  0  0  0  0  0  0  0  0  0
   -7.1672  -15.9088   20.6772 H   0  0  0  0  0  0  0  0  0  0  0  0
  1  2  2  0
  2  3  1  0
  3  4  1  0
  4  5  2  3
  5  6  1  0
  6  7  2  0
  7  8  1  0
  8  9  2  0
  9 10  1  0
  4 11  1  0
 11 12  2  0
 11 13  1  0
 13 14  1  0
 14 15  1  0
 15 16  1  0
 16 17  2  0
 17 18  1  0
 18 19  2  0
 19 20  1  0
 20 21  2  0
 21 22  1  0
 22 23  2  0
 23 24  1  0
 13  2  1  0
 24 16  1  0
 10  6  1  0
 23 18  1  0
  5 25  1  0
  7 26  1  0
  8 27  1  0
  9 28  1  0
 14 29  1  0
 14 30  1  0
 15 31  1  0
 15 32  1  0
 19 33  1  0
 20 34  1  0
 21 35  1  0
 22 36  1  0
 24 37  1  0
M  END
>  <Energy>  (180) 
647.95190180228042

>  <compound_id>  (180) 
4841

>  <target_id>  (180) 
1

>  <reference_id>  (180) 
66

>  <inspiration_ids>  (180) 
[94, 66]

>  <energy_score>  (180) 
621.5237196177413

>  <distance_score>  (180) 
14.758098437370375

>  <path>  (180) 
/opt/xchem-fragalysis-2/maxwin/BulkDock/SCRATCH/511016/C4841-P66/C4841-P66.minimised.mol

>  <scratch_subdir>  (180) 
/opt/xchem-fragalysis-2/maxwin/BulkDock/SCRATCH/511016/C4841-P66

>  <fragmenstein_runtime>  (180) 
21.65187430381775

>  <fragmenstein_outcome>  (180) 
too moved

>  <fragmenstein_mode>  (180) 
expansion

>  <fragmenstein_error>  (180) 


$$$$
C4842-P94
     RDKit          3D

 38 41  0  0  0  0  0  0  0  0999 V2000
    3.8927   -9.7306   21.7580 O   0  0  0  0  0  0  0  0  0  0  0  0
    4.4826  -10.7559   22.1004 C   0  0  0  0  0  0  0  0  0  0  0  0
    5.9566  -10.4701   22.2723 C   0  0  0  0  0  0  0  0  0  0  0  0
    6.9300  -10.7983   21.3192 C   0  0  0  0  0  0  0  0  0  0  0  0
    8.1251  -10.0197   21.4035 C   0  0  0  0  0  0  0  0  0  0  0  0
    8.0454   -9.0883   22.4088 C   0  0  0  0  0  0  0  0  0  0  0  0
    6.5377   -9.1469   23.2165 S   0  0  0  0  0  0  0  0  0  0  0  0
    3.6870  -12.2603   22.1879 N   0  0  0  0  0  0  0  0  0  0  0  0
    3.6492  -13.1952   20.9416 C   0  0  0  0  0  0  0  0  0  0  0  0
    2.2913  -14.5094   20.4872 C   0  0  0  0  0  0  0  0  0  0  0  0
    0.9331  -15.1642   21.6717 N   0  0  0  0  0  0  0  0  0  0  0  0
   -0.4944  -16.3929   21.2798 C   0  0  0  0  0  0  0  0  0  0  0  0
   -0.9714  -15.0561   22.5347 C   0  0  0  0  0  0  0  0  0  0  0  0
   -2.0660  -15.3131   23.8241 C   0  0  0  0  0  0  0  0  0  0  0  0
   -3.3884  -15.6874   23.3660 C   0  0  0  0  0  0  0  0  0  0  0  0
   -3.7166  -16.9715   22.0446 C   0  0  0  0  0  0  0  0  0  0  0  0
   -4.7733  -18.5370   22.8998 N   0  0  0  0  0  0  0  0  0  0  0  0
   -3.1710  -19.9867   23.2781 C   0  0  0  0  0  0  0  0  0  0  0  0
   -1.7120  -19.2230   22.6051 N   0  0  0  0  0  0  0  0  0  0  0  0
   -1.9850  -17.7251   21.2876 C   0  0  0  0  0  0  0  0  0  0  0  0
    1.9743  -14.5469   23.2573 C   0  0  0  0  0  0  0  0  0  0  0  0
    2.9200  -12.9405   23.3961 C   0  0  0  0  0  0  0  0  0  0  0  0
    6.7464  -11.5201   20.5309 H   0  0  0  0  0  0  0  0  0  0  0  0
    8.9770  -10.1214   20.7416 H   0  0  0  0  0  0  0  0  0  0  0  0
    8.7868   -8.3554   22.6971 H   0  0  0  0  0  0  0  0  0  0  0  0
    3.9831  -12.7553   19.9674 H   0  0  0  0  0  0  0  0  0  0  0  0
    4.7220  -13.4485   20.8825 H   0  0  0  0  0  0  0  0  0  0  0  0
    2.3393  -14.5458   19.3526 H   0  0  0  0  0  0  0  0  0  0  0  0
    2.5104  -15.4615   20.4248 H   0  0  0  0  0  0  0  0  0  0  0  0
   -0.3250  -14.2237   22.7801 H   0  0  0  0  0  0  0  0  0  0  0  0
   -1.8778  -14.9285   24.8254 H   0  0  0  0  0  0  0  0  0  0  0  0
   -4.2673  -15.3327   23.8600 H   0  0  0  0  0  0  0  0  0  0  0  0
   -5.5505  -18.4691   23.5356 H   0  0  0  0  0  0  0  0  0  0  0  0
   -3.3717  -20.8772   23.8916 H   0  0  0  0  0  0  0  0  0  0  0  0
    2.9151  -15.1307   23.3492 H   0  0  0  0  0  0  0  0  0  0  0  0
    1.0855  -14.2729   23.8680 H   0  0  0  0  0  0  0  0  0  0  0  0
    2.2337  -12.1993   23.7873 H   0  0  0  0  0  0  0  0  0  0  0  0
    3.5536  -13.2466   24.1973 H   0  0  0  0  0  0  0  0  0  0  0  0
  1  2  2  0
  2  3  1  0
  3  4  2  0
  4  5  1  0
  5  6  2  0
  6  7  1  0
  2  8  1  0
  8  9  1  0
  9 10  1  0
 10 11  1  0
 11 12  1  0
 12 13  2  0
 13 14  1  0
 14 15  2  0
 15 16  1  0
 16 17  1  0
 17 18  1  0
 18 19  2  0
 19 20  1  0
 11 21  1  0
 21 22  1  0
  7  3  1  0
 22  8  1  0
 20 12  1  0
 20 16  2  0
  4 23  1  0
  5 24  1  0
  6 25  1  0
  9 26  1  0
  9 27  1  0
 10 28  1  0
 10 29  1  0
 13 30  1  0
 14 31  1  0
 15 32  1  0
 17 33  1  0
 18 34  1  0
 21 35  1  0
 21 36  1  0
 22 37  1  0
 22 38  1  0
M  END
>  <Energy>  (181) 
1740.7052096079287

>  <compound_id>  (181) 
4842

>  <target_id>  (181) 
1

>  <reference_id>  (181) 
94

>  <inspiration_ids>  (181) 
[94, 66]

>  <energy_score>  (181) 
1589.267298889981

>  <distance_score>  (181) 
13.853921170528707

>  <path>  (181) 
/opt/xchem-fragalysis-2/maxwin/BulkDock/SCRATCH/511016/C4842-P94/C4842-P94.minimised.mol

>  <scratch_subdir>  (181) 
/opt/xchem-fragalysis-2/maxwin/BulkDock/SCRATCH/511016/C4842-P94

>  <fragmenstein_runtime>  (181) 
28.08462953567505

>  <fragmenstein_outcome>  (181) 
too moved

>  <fragmenstein_mode>  (181) 
expansion

>  <fragmenstein_error>  (181) 


$$$$
C4842-P66
     RDKit          3D

 38 41  0  0  0  0  0  0  0  0999 V2000
    9.3714   -8.3897   25.8943 O   0  0  0  0  0  0  0  0  0  0  0  0
    9.6296   -8.8602   24.7943 C   0  0  0  0  0  0  0  0  0  0  0  0
   10.8421   -8.4584   24.0619 C   0  0  0  0  0  0  0  0  0  0  0  0
   11.4198   -7.1931   24.1220 C   0  0  0  0  0  0  0  0  0  0  0  0
   12.4869   -7.0072   23.1962 C   0  0  0  0  0  0  0  0  0  0  0  0
   12.7424   -8.1605   22.4959 C   0  0  0  0  0  0  0  0  0  0  0  0
   11.6258   -9.4052   22.8718 S   0  0  0  0  0  0  0  0  0  0  0  0
    8.7759   -9.7069   24.1107 N   0  0  0  0  0  0  0  0  0  0  0  0
    9.2281  -11.4654   24.6064 C   0  0  0  0  0  0  0  0  0  0  0  0
    8.3439  -12.6336   25.7021 C   0  0  0  0  0  0  0  0  0  0  0  0
    6.9730  -12.6705   25.1240 N   0  0  0  0  0  0  0  0  0  0  0  0
    5.7184  -13.2583   25.8432 C   0  0  0  0  0  0  0  0  0  0  0  0
    5.7871  -12.6170   27.0478 C   0  0  0  0  0  0  0  0  0  0  0  0
    4.8016  -13.1117   27.7774 C   0  0  0  0  0  0  0  0  0  0  0  0
    3.7835  -14.2254   27.2930 C   0  0  0  0  0  0  0  0  0  0  0  0
    4.0679  -15.2617   26.5214 C   0  0  0  0  0  0  0  0  0  0  0  0
    3.4497  -16.7989   26.6061 N   0  0  0  0  0  0  0  0  0  0  0  0
    3.7361  -17.4408   25.1864 C   0  0  0  0  0  0  0  0  0  0  0  0
    4.4993  -16.1569   24.3884 N   0  0  0  0  0  0  0  0  0  0  0  0
    4.7432  -14.7651   25.4029 C   0  0  0  0  0  0  0  0  0  0  0  0
    6.9364  -11.2974   24.6738 C   0  0  0  0  0  0  0  0  0  0  0  0
    8.5574  -11.0987   24.0294 C   0  0  0  0  0  0  0  0  0  0  0  0
   11.0509   -6.4190   24.7865 H   0  0  0  0  0  0  0  0  0  0  0  0
   13.0514   -6.0896   23.0796 H   0  0  0  0  0  0  0  0  0  0  0  0
   13.5220   -8.3287   21.7665 H   0  0  0  0  0  0  0  0  0  0  0  0
    9.9016  -11.1290   25.4927 H   0  0  0  0  0  0  0  0  0  0  0  0
   10.2086  -11.9360   24.1184 H   0  0  0  0  0  0  0  0  0  0  0  0
    8.8576  -13.5966   25.6250 H   0  0  0  0  0  0  0  0  0  0  0  0
    8.4059  -12.2244   26.7163 H   0  0  0  0  0  0  0  0  0  0  0  0
    6.3955  -11.7842   27.3506 H   0  0  0  0  0  0  0  0  0  0  0  0
    4.6552  -12.4527   28.6310 H   0  0  0  0  0  0  0  0  0  0  0  0
    2.7385  -14.2027   27.5590 H   0  0  0  0  0  0  0  0  0  0  0  0
    2.8865  -17.1691   27.3656 H   0  0  0  0  0  0  0  0  0  0  0  0
    3.2459  -18.3306   24.8064 H   0  0  0  0  0  0  0  0  0  0  0  0
    6.8728  -10.5745   25.4978 H   0  0  0  0  0  0  0  0  0  0  0  0
    6.2257  -11.0547   23.8877 H   0  0  0  0  0  0  0  0  0  0  0  0
    8.7349  -11.7689   22.9643 H   0  0  0  0  0  0  0  0  0  0  0  0
    7.9587  -10.7035   23.1120 H   0  0  0  0  0  0  0  0  0  0  0  0
  1  2  2  0
  2  3  1  0
  3  4  2  0
  4  5  1  0
  5  6  2  0
  6  7  1  0
  2  8  1  0
  8  9  1  0
  9 10  1  0
 10 11  1  0
 11 12  1  0
 12 13  2  0
 13 14  1  0
 14 15  2  0
 15 16  1  0
 16 17  1  0
 17 18  1  0
 18 19  2  0
 19 20  1  0
 11 21  1  0
 21 22  1  0
  7  3  1  0
 22  8  1  0
 20 12  1  0
 20 16  2  0
  4 23  1  0
  5 24  1  0
  6 25  1  0
  9 26  1  0
  9 27  1  0
 10 28  1  0
 10 29  1  0
 13 30  1  0
 14 31  1  0
 15 32  1  0
 17 33  1  0
 18 34  1  0
 21 35  1  0
 21 36  1  0
 22 37  1  0
 22 38  1  0
M  END
>  <Energy>  (182) 
964.01267484505809

>  <compound_id>  (182) 
4842

>  <target_id>  (182) 
1

>  <reference_id>  (182) 
66

>  <inspiration_ids>  (182) 
[94, 66]

>  <energy_score>  (182) 
812.5747641270723

>  <distance_score>  (182) 
15.7986865580936

>  <path>  (182) 
/opt/xchem-fragalysis-2/maxwin/BulkDock/SCRATCH/511016/C4842-P66/C4842-P66.minimised.mol

>  <scratch_subdir>  (182) 
/opt/xchem-fragalysis-2/maxwin/BulkDock/SCRATCH/511016/C4842-P66

>  <fragmenstein_runtime>  (182) 
25.496379375457764

>  <fragmenstein_outcome>  (182) 
too moved

>  <fragmenstein_mode>  (182) 
expansion

>  <fragmenstein_error>  (182) 


$$$$
C4843-P94
     RDKit          3D

 35 37  0  0  0  0  0  0  0  0999 V2000
    3.0932  -11.0222   22.3125 O   0  0  0  0  0  0  0  0  0  0  0  0
    3.3014  -12.2068   22.3344 C   0  0  0  0  0  0  0  0  0  0  0  0
    4.0942  -12.6845   20.8654 C   0  0  0  0  0  0  0  0  0  0  0  0
    4.8209  -11.4064   20.2179 C   0  0  0  0  0  0  0  0  0  0  0  0
    6.1673  -11.0532   20.2597 C   0  0  0  0  0  0  0  0  0  0  0  0
    6.4646   -9.8346   19.5740 C   0  0  0  0  0  0  0  0  0  0  0  0
    5.3433   -9.2977   18.9897 C   0  0  0  0  0  0  0  0  0  0  0  0
    3.9587  -10.2749   19.2473 S   0  0  0  0  0  0  0  0  0  0  0  0
    2.7998  -13.3613   23.5250 N   0  0  0  0  0  0  0  0  0  0  0  0
    1.7398  -13.1704   24.9647 C   0  0  0  0  0  0  0  0  0  0  0  0
    0.6923  -13.7708   26.5891 C   0  0  0  0  0  0  0  0  0  0  0  0
   -0.9778  -14.7068   27.6004 C   0  0  0  0  0  0  0  0  0  0  0  0
   -1.2383  -15.0611   28.9538 N   0  0  0  0  0  0  0  0  0  0  0  0
   -2.7563  -14.6886   29.4724 C   0  0  0  0  0  0  0  0  0  0  0  0
   -3.8872  -13.3405   29.7574 C   0  0  0  0  0  0  0  0  0  0  0  0
   -5.4959  -13.6315   30.0215 C   0  0  0  0  0  0  0  0  0  0  0  0
   -6.0417  -15.0301   30.0496 C   0  0  0  0  0  0  0  0  0  0  0  0
   -5.0968  -16.2085   29.8142 C   0  0  0  0  0  0  0  0  0  0  0  0
   -3.4196  -15.9050   29.3317 C   0  0  0  0  0  0  0  0  0  0  0  0
   -2.4122  -15.7542   27.7525 N   0  0  0  0  0  0  0  0  0  0  0  0
    3.3480  -13.0206   20.1493 H   0  0  0  0  0  0  0  0  0  0  0  0
    4.8635  -13.4447   20.7873 H   0  0  0  0  0  0  0  0  0  0  0  0
    6.9156  -11.6412   20.7760 H   0  0  0  0  0  0  0  0  0  0  0  0
    7.4506   -9.3930   19.5220 H   0  0  0  0  0  0  0  0  0  0  0  0
    5.2549   -8.3878   18.4138 H   0  0  0  0  0  0  0  0  0  0  0  0
    3.0538  -14.2882   23.2264 H   0  0  0  0  0  0  0  0  0  0  0  0
    1.0671  -13.8228   24.3352 H   0  0  0  0  0  0  0  0  0  0  0  0
    1.6864  -12.0920   24.9010 H   0  0  0  0  0  0  0  0  0  0  0  0
    1.5619  -14.3596   26.7935 H   0  0  0  0  0  0  0  0  0  0  0  0
    0.9951  -12.7880   26.8333 H   0  0  0  0  0  0  0  0  0  0  0  0
   -3.4981  -12.3255   29.6450 H   0  0  0  0  0  0  0  0  0  0  0  0
   -6.1406  -12.7661   30.1642 H   0  0  0  0  0  0  0  0  0  0  0  0
   -7.0948  -15.2101   30.2397 H   0  0  0  0  0  0  0  0  0  0  0  0
   -5.5559  -17.1930   29.7702 H   0  0  0  0  0  0  0  0  0  0  0  0
   -2.3622  -16.6442   27.2858 H   0  0  0  0  0  0  0  0  0  0  0  0
  1  2  2  0
  2  3  1  0
  3  4  1  0
  4  5  2  0
  5  6  1  0
  6  7  2  0
  7  8  1  0
  2  9  1  0
  9 10  1  0
 10 11  1  0
 11 12  1  0
 12 13  2  0
 13 14  1  0
 14 15  2  0
 15 16  1  0
 16 17  2  0
 17 18  1  0
 18 19  2  0
 19 20  1  0
  8  4  1  0
 20 12  1  0
 19 14  1  0
  3 21  1  0
  3 22  1  0
  5 23  1  0
  6 24  1  0
  7 25  1  0
  9 26  1  0
 10 27  1  0
 10 28  1  0
 11 29  1  0
 11 30  1  0
 15 31  1  0
 16 32  1  0
 17 33  1  0
 18 34  1  0
 20 35  1  0
M  END
>  <Energy>  (183) 
840.96362093468463

>  <compound_id>  (183) 
4843

>  <target_id>  (183) 
1

>  <reference_id>  (183) 
94

>  <inspiration_ids>  (183) 
[94, 66]

>  <energy_score>  (183) 
780.6105183167253

>  <distance_score>  (183) 
13.411701067038905

>  <path>  (183) 
/opt/xchem-fragalysis-2/maxwin/BulkDock/SCRATCH/511016/C4843-P94/C4843-P94.minimised.mol

>  <scratch_subdir>  (183) 
/opt/xchem-fragalysis-2/maxwin/BulkDock/SCRATCH/511016/C4843-P94

>  <fragmenstein_runtime>  (183) 
20.429694414138794

>  <fragmenstein_outcome>  (183) 
too moved

>  <fragmenstein_mode>  (183) 
expansion

>  <fragmenstein_error>  (183) 


$$$$
C4843-P66
     RDKit          3D

 35 37  0  0  0  0  0  0  0  0999 V2000
    3.0145  -17.6030   26.2134 O   0  0  0  0  0  0  0  0  0  0  0  0
    2.4938  -17.8656   25.1665 C   0  0  0  0  0  0  0  0  0  0  0  0
    3.5419  -17.1482   23.7516 C   0  0  0  0  0  0  0  0  0  0  0  0
    3.4202  -15.1577   23.2559 C   0  0  0  0  0  0  0  0  0  0  0  0
    3.1866  -14.3160   21.8466 C   0  0  0  0  0  0  0  0  0  0  0  0
    3.6250  -12.8381   21.3815 C   0  0  0  0  0  0  0  0  0  0  0  0
    3.3091  -12.1320   22.4883 C   0  0  0  0  0  0  0  0  0  0  0  0
    2.8772  -13.2552   23.8982 S   0  0  0  0  0  0  0  0  0  0  0  0
    0.7762  -18.6272   25.1136 N   0  0  0  0  0  0  0  0  0  0  0  0
   -0.4731  -18.9073   26.5257 C   0  0  0  0  0  0  0  0  0  0  0  0
   -1.0090  -20.1191   27.8779 C   0  0  0  0  0  0  0  0  0  0  0  0
   -0.6888  -20.8129   29.3780 C   0  0  0  0  0  0  0  0  0  0  0  0
   -0.6548  -22.1449   29.5152 N   0  0  0  0  0  0  0  0  0  0  0  0
   -1.3096  -22.2707   30.6852 C   0  0  0  0  0  0  0  0  0  0  0  0
   -2.2316  -23.2425   30.9715 C   0  0  0  0  0  0  0  0  0  0  0  0
   -3.2554  -22.7738   31.7740 C   0  0  0  0  0  0  0  0  0  0  0  0
   -3.2556  -21.5735   32.4720 C   0  0  0  0  0  0  0  0  0  0  0  0
   -2.2048  -20.7143   32.3446 C   0  0  0  0  0  0  0  0  0  0  0  0
   -1.2548  -21.0815   31.3999 C   0  0  0  0  0  0  0  0  0  0  0  0
   -0.3520  -20.3383   30.6414 N   0  0  0  0  0  0  0  0  0  0  0  0
    3.4757  -18.0378   23.1956 H   0  0  0  0  0  0  0  0  0  0  0  0
    4.4397  -16.7459   24.2406 H   0  0  0  0  0  0  0  0  0  0  0  0
    2.6176  -14.7294   20.9657 H   0  0  0  0  0  0  0  0  0  0  0  0
    3.6804  -12.5020   20.3561 H   0  0  0  0  0  0  0  0  0  0  0  0
    3.1706  -11.0718   22.5119 H   0  0  0  0  0  0  0  0  0  0  0  0
    0.5473  -18.8584   24.1438 H   0  0  0  0  0  0  0  0  0  0  0  0
   -1.4430  -18.4839   26.1586 H   0  0  0  0  0  0  0  0  0  0  0  0
   -0.2419  -17.9867   27.1039 H   0  0  0  0  0  0  0  0  0  0  0  0
   -1.9373  -20.0595   27.4346 H   0  0  0  0  0  0  0  0  0  0  0  0
   -0.4166  -20.9659   27.6683 H   0  0  0  0  0  0  0  0  0  0  0  0
   -2.3131  -24.1244   30.3546 H   0  0  0  0  0  0  0  0  0  0  0  0
   -4.1789  -23.3127   31.7517 H   0  0  0  0  0  0  0  0  0  0  0  0
   -4.1233  -21.2334   33.0285 H   0  0  0  0  0  0  0  0  0  0  0  0
   -2.3573  -19.7154   32.7192 H   0  0  0  0  0  0  0  0  0  0  0  0
   -0.1062  -19.3758   30.8269 H   0  0  0  0  0  0  0  0  0  0  0  0
  1  2  2  0
  2  3  1  0
  3  4  1  0
  4  5  2  0
  5  6  1  0
  6  7  2  0
  7  8  1  0
  2  9  1  0
  9 10  1  0
 10 11  1  0
 11 12  1  0
 12 13  2  0
 13 14  1  0
 14 15  2  0
 15 16  1  0
 16 17  2  0
 17 18  1  0
 18 19  2  0
 19 20  1  0
  8  4  1  0
 20 12  1  0
 19 14  1  0
  3 21  1  0
  3 22  1  0
  5 23  1  0
  6 24  1  0
  7 25  1  0
  9 26  1  0
 10 27  1  0
 10 28  1  0
 11 29  1  0
 11 30  1  0
 15 31  1  0
 16 32  1  0
 17 33  1  0
 18 34  1  0
 20 35  1  0
M  END
>  <Energy>  (184) 
628.30827891928516

>  <compound_id>  (184) 
4843

>  <target_id>  (184) 
1

>  <reference_id>  (184) 
66

>  <inspiration_ids>  (184) 
[94, 66]

>  <energy_score>  (184) 
567.9551763013019

>  <distance_score>  (184) 
14.887503371441728

>  <path>  (184) 
/opt/xchem-fragalysis-2/maxwin/BulkDock/SCRATCH/511016/C4843-P66/C4843-P66.minimised.mol

>  <scratch_subdir>  (184) 
/opt/xchem-fragalysis-2/maxwin/BulkDock/SCRATCH/511016/C4843-P66

>  <fragmenstein_runtime>  (184) 
26.50894021987915

>  <fragmenstein_outcome>  (184) 
too moved

>  <fragmenstein_mode>  (184) 
expansion

>  <fragmenstein_error>  (184) 


$$$$
C4844-P94
     RDKit          3D

 38 40  0  0  0  0  0  0  0  0999 V2000
   -5.1361  -16.3121   30.0464 C   0  0  0  0  0  0  0  0  0  0  0  0
   -3.4516  -16.0400   30.1036 N   0  0  0  0  0  0  0  0  0  0  0  0
   -2.2204  -14.9653   29.3864 C   0  0  0  0  0  0  0  0  0  0  0  0
   -1.3754  -14.7477   27.5834 C   0  0  0  0  0  0  0  0  0  0  0  0
   -0.3527  -13.4587   26.1718 C   0  0  0  0  0  0  0  0  0  0  0  0
    1.4207  -13.1766   25.4651 N   0  0  0  0  0  0  0  0  0  0  0  0
    1.9774  -12.3900   23.8917 C   0  0  0  0  0  0  0  0  0  0  0  0
    1.2014  -11.8643   23.1439 O   0  0  0  0  0  0  0  0  0  0  0  0
    3.4078  -12.3932   23.2213 C   0  0  0  0  0  0  0  0  0  0  0  0
    4.3404  -10.8118   22.4174 C   0  0  0  0  0  0  0  0  0  0  0  0
    3.9959   -9.5171   21.8922 C   0  0  0  0  0  0  0  0  0  0  0  0
    5.0340   -8.6958   21.3256 C   0  0  0  0  0  0  0  0  0  0  0  0
    6.2842   -9.1432   21.6242 C   0  0  0  0  0  0  0  0  0  0  0  0
    6.2423  -10.4179   22.7485 S   0  0  0  0  0  0  0  0  0  0  0  0
   -1.1964  -15.2397   30.4652 N   0  0  0  0  0  0  0  0  0  0  0  0
   -1.6959  -15.8452   31.7989 C   0  0  0  0  0  0  0  0  0  0  0  0
   -1.0218  -16.0721   33.0094 C   0  0  0  0  0  0  0  0  0  0  0  0
   -1.5938  -16.9377   33.9631 C   0  0  0  0  0  0  0  0  0  0  0  0
   -2.8065  -17.5869   33.7389 C   0  0  0  0  0  0  0  0  0  0  0  0
   -3.4972  -17.3964   32.5492 C   0  0  0  0  0  0  0  0  0  0  0  0
   -2.9093  -16.5349   31.5750 C   0  0  0  0  0  0  0  0  0  0  0  0
   -5.6676  -15.3539   30.1268 H   0  0  0  0  0  0  0  0  0  0  0  0
   -5.4785  -16.8724   29.2165 H   0  0  0  0  0  0  0  0  0  0  0  0
   -5.3578  -16.9283   30.9182 H   0  0  0  0  0  0  0  0  0  0  0  0
   -0.6248  -15.2469   28.1747 H   0  0  0  0  0  0  0  0  0  0  0  0
   -2.0742  -15.3574   27.0630 H   0  0  0  0  0  0  0  0  0  0  0  0
   -1.1219  -12.7038   25.7474 H   0  0  0  0  0  0  0  0  0  0  0  0
   -0.9545  -13.9201   25.2044 H   0  0  0  0  0  0  0  0  0  0  0  0
    2.2333  -13.4824   25.9840 H   0  0  0  0  0  0  0  0  0  0  0  0
    3.3440  -12.8906   22.2652 H   0  0  0  0  0  0  0  0  0  0  0  0
    3.8689  -12.9637   24.0043 H   0  0  0  0  0  0  0  0  0  0  0  0
    2.9720   -9.1907   21.7505 H   0  0  0  0  0  0  0  0  0  0  0  0
    4.8357   -7.7990   20.7522 H   0  0  0  0  0  0  0  0  0  0  0  0
    7.2295   -8.7012   21.3428 H   0  0  0  0  0  0  0  0  0  0  0  0
   -0.0510  -15.6204   33.1748 H   0  0  0  0  0  0  0  0  0  0  0  0
   -1.0631  -17.1098   34.8971 H   0  0  0  0  0  0  0  0  0  0  0  0
   -3.2192  -18.2421   34.5022 H   0  0  0  0  0  0  0  0  0  0  0  0
   -4.4477  -17.8992   32.4133 H   0  0  0  0  0  0  0  0  0  0  0  0
  1  2  1  0
  2  3  1  0
  3  4  1  0
  4  5  1  0
  5  6  1  0
  6  7  1  0
  7  8  2  0
  7  9  1  0
  9 10  1  0
 10 11  2  0
 11 12  1  0
 12 13  2  0
 13 14  1  0
  3 15  2  0
 15 16  1  0
 16 17  2  0
 17 18  1  0
 18 19  2  0
 19 20  1  0
 20 21  2  0
 21  2  1  0
 14 10  1  0
 21 16  1  0
  1 22  1  0
  1 23  1  0
  1 24  1  0
  4 25  1  0
  4 26  1  0
  5 27  1  0
  5 28  1  0
  6 29  1  0
  9 30  1  0
  9 31  1  0
 11 32  1  0
 12 33  1  0
 13 34  1  0
 17 35  1  0
 18 36  1  0
 19 37  1  0
 20 38  1  0
M  END
>  <Energy>  (185) 
683.05321571232366

>  <compound_id>  (185) 
4844

>  <target_id>  (185) 
1

>  <reference_id>  (185) 
94

>  <inspiration_ids>  (185) 
[94, 66]

>  <energy_score>  (185) 
622.9294664251202

>  <distance_score>  (185) 
13.4415958987475

>  <path>  (185) 
/opt/xchem-fragalysis-2/maxwin/BulkDock/SCRATCH/511016/C4844-P94/C4844-P94.minimised.mol

>  <scratch_subdir>  (185) 
/opt/xchem-fragalysis-2/maxwin/BulkDock/SCRATCH/511016/C4844-P94

>  <fragmenstein_runtime>  (185) 
22.463646173477173

>  <fragmenstein_outcome>  (185) 
too moved

>  <fragmenstein_mode>  (185) 
expansion

>  <fragmenstein_error>  (185) 


$$$$
C4844-P66
     RDKit          3D

 38 40  0  0  0  0  0  0  0  0999 V2000
   -3.0723  -20.9209   31.4743 C   0  0  0  0  0  0  0  0  0  0  0  0
   -2.2850  -21.7064   30.5436 N   0  0  0  0  0  0  0  0  0  0  0  0
   -1.9012  -21.5606   29.1888 C   0  0  0  0  0  0  0  0  0  0  0  0
   -1.4420  -20.1928   28.1305 C   0  0  0  0  0  0  0  0  0  0  0  0
   -2.3120  -18.7866   26.8813 C   0  0  0  0  0  0  0  0  0  0  0  0
   -1.9444  -17.0368   26.7710 N   0  0  0  0  0  0  0  0  0  0  0  0
   -2.3878  -15.7124   25.4276 C   0  0  0  0  0  0  0  0  0  0  0  0
   -3.0989  -15.7903   24.4578 O   0  0  0  0  0  0  0  0  0  0  0  0
   -1.3925  -13.9388   25.4385 C   0  0  0  0  0  0  0  0  0  0  0  0
    0.6577  -13.4554   25.7720 C   0  0  0  0  0  0  0  0  0  0  0  0
    1.6553  -13.1739   24.5155 C   0  0  0  0  0  0  0  0  0  0  0  0
    2.9927  -13.1654   24.1402 C   0  0  0  0  0  0  0  0  0  0  0  0
    3.5704  -13.9129   25.1486 C   0  0  0  0  0  0  0  0  0  0  0  0
    2.0470  -13.7395   26.6880 S   0  0  0  0  0  0  0  0  0  0  0  0
   -1.5852  -22.7822   28.7431 N   0  0  0  0  0  0  0  0  0  0  0  0
   -1.5623  -23.6376   29.7950 C   0  0  0  0  0  0  0  0  0  0  0  0
   -1.1958  -24.9880   29.8304 C   0  0  0  0  0  0  0  0  0  0  0  0
   -1.0693  -25.6088   31.0761 C   0  0  0  0  0  0  0  0  0  0  0  0
   -1.3288  -24.9021   32.2514 C   0  0  0  0  0  0  0  0  0  0  0  0
   -1.7667  -23.5729   32.2185 C   0  0  0  0  0  0  0  0  0  0  0  0
   -1.8765  -22.9701   30.9583 C   0  0  0  0  0  0  0  0  0  0  0  0
   -3.4413  -21.5535   32.2857 H   0  0  0  0  0  0  0  0  0  0  0  0
   -2.4501  -20.1476   31.9257 H   0  0  0  0  0  0  0  0  0  0  0  0
   -3.9525  -20.5501   30.9779 H   0  0  0  0  0  0  0  0  0  0  0  0
   -0.6449  -20.6618   27.6686 H   0  0  0  0  0  0  0  0  0  0  0  0
   -0.8213  -19.7352   28.9264 H   0  0  0  0  0  0  0  0  0  0  0  0
   -2.4837  -19.1829   25.9016 H   0  0  0  0  0  0  0  0  0  0  0  0
   -1.2391  -18.7157   26.6308 H   0  0  0  0  0  0  0  0  0  0  0  0
   -1.3863  -16.6449   27.5087 H   0  0  0  0  0  0  0  0  0  0  0  0
   -0.9730  -14.2418   24.4364 H   0  0  0  0  0  0  0  0  0  0  0  0
   -2.0666  -13.0704   25.4652 H   0  0  0  0  0  0  0  0  0  0  0  0
    1.0360  -13.9119   23.9479 H   0  0  0  0  0  0  0  0  0  0  0  0
    3.3024  -12.6794   23.2357 H   0  0  0  0  0  0  0  0  0  0  0  0
    4.4786  -14.3305   25.5346 H   0  0  0  0  0  0  0  0  0  0  0  0
   -0.9548  -25.5159   28.9150 H   0  0  0  0  0  0  0  0  0  0  0  0
   -0.7512  -26.6474   31.1300 H   0  0  0  0  0  0  0  0  0  0  0  0
   -1.2167  -25.4019   33.2121 H   0  0  0  0  0  0  0  0  0  0  0  0
   -1.9844  -23.0430   33.1400 H   0  0  0  0  0  0  0  0  0  0  0  0
  1  2  1  0
  2  3  1  0
  3  4  1  0
  4  5  1  0
  5  6  1  0
  6  7  1  0
  7  8  2  0
  7  9  1  0
  9 10  1  0
 10 11  2  0
 11 12  1  0
 12 13  2  0
 13 14  1  0
  3 15  2  0
 15 16  1  0
 16 17  2  0
 17 18  1  0
 18 19  2  0
 19 20  1  0
 20 21  2  0
 21  2  1  0
 14 10  1  0
 21 16  1  0
  1 22  1  0
  1 23  1  0
  1 24  1  0
  4 25  1  0
  4 26  1  0
  5 27  1  0
  5 28  1  0
  6 29  1  0
  9 30  1  0
  9 31  1  0
 11 32  1  0
 12 33  1  0
 13 34  1  0
 17 35  1  0
 18 36  1  0
 19 37  1  0
 20 38  1  0
M  END
>  <Energy>  (186) 
679.84097936201033

>  <compound_id>  (186) 
4844

>  <target_id>  (186) 
1

>  <reference_id>  (186) 
66

>  <inspiration_ids>  (186) 
[94, 66]

>  <energy_score>  (186) 
619.717230074789

>  <distance_score>  (186) 
15.493310366178795

>  <path>  (186) 
/opt/xchem-fragalysis-2/maxwin/BulkDock/SCRATCH/511016/C4844-P66/C4844-P66.minimised.mol

>  <scratch_subdir>  (186) 
/opt/xchem-fragalysis-2/maxwin/BulkDock/SCRATCH/511016/C4844-P66

>  <fragmenstein_runtime>  (186) 
24.954979419708252

>  <fragmenstein_outcome>  (186) 
too moved

>  <fragmenstein_mode>  (186) 
expansion

>  <fragmenstein_error>  (186) 


$$$$
C4845-P94
     RDKit          3D

 35 37  0  0  0  0  0  0  0  0999 V2000
    1.5835  -14.9718   23.2428 O   0  0  0  0  0  0  0  0  0  0  0  0
    0.9621  -14.1218   23.8215 C   0  0  0  0  0  0  0  0  0  0  0  0
    2.0190  -12.3932   23.7616 C   0  0  0  0  0  0  0  0  0  0  0  0
    3.1513  -11.7170   22.3088 C   0  0  0  0  0  0  0  0  0  0  0  0
    3.7027  -10.3821   22.0170 C   0  0  0  0  0  0  0  0  0  0  0  0
    4.5525  -10.1006   20.8923 C   0  0  0  0  0  0  0  0  0  0  0  0
    4.6680  -11.2047   20.1271 C   0  0  0  0  0  0  0  0  0  0  0  0
    3.7374  -12.4472   20.7667 S   0  0  0  0  0  0  0  0  0  0  0  0
   -0.7293  -14.3108   24.5077 N   0  0  0  0  0  0  0  0  0  0  0  0
   -1.9206  -15.8341   24.6162 C   0  0  0  0  0  0  0  0  0  0  0  0
   -2.1371  -17.6444   25.6227 C   0  0  0  0  0  0  0  0  0  0  0  0
   -2.7926  -19.4922   25.3042 C   0  0  0  0  0  0  0  0  0  0  0  0
   -2.5464  -20.4965   23.9946 N   0  0  0  0  0  0  0  0  0  0  0  0
   -3.5383  -21.5886   23.7695 C   0  0  0  0  0  0  0  0  0  0  0  0
   -3.4841  -22.6852   22.8995 C   0  0  0  0  0  0  0  0  0  0  0  0
   -4.5325  -23.5972   22.9415 C   0  0  0  0  0  0  0  0  0  0  0  0
   -4.5269  -24.6414   22.1007 F   0  0  0  0  0  0  0  0  0  0  0  0
   -5.5559  -23.4863   23.8698 C   0  0  0  0  0  0  0  0  0  0  0  0
   -5.5801  -22.4505   24.7989 C   0  0  0  0  0  0  0  0  0  0  0  0
   -4.6461  -21.4248   24.6325 C   0  0  0  0  0  0  0  0  0  0  0  0
   -4.4587  -20.1700   25.2971 N   0  0  0  0  0  0  0  0  0  0  0  0
    1.2550  -11.7801   23.2512 H   0  0  0  0  0  0  0  0  0  0  0  0
    2.0028  -11.9512   24.7004 H   0  0  0  0  0  0  0  0  0  0  0  0
    3.5231   -9.5080   22.5990 H   0  0  0  0  0  0  0  0  0  0  0  0
    4.9977   -9.1404   20.6711 H   0  0  0  0  0  0  0  0  0  0  0  0
    5.2111  -11.3382   19.2025 H   0  0  0  0  0  0  0  0  0  0  0  0
   -0.9821  -13.4803   25.0130 H   0  0  0  0  0  0  0  0  0  0  0  0
   -2.8025  -15.5933   24.0049 H   0  0  0  0  0  0  0  0  0  0  0  0
   -2.3652  -15.2682   25.4383 H   0  0  0  0  0  0  0  0  0  0  0  0
   -1.1556  -18.0069   25.9967 H   0  0  0  0  0  0  0  0  0  0  0  0
   -2.5567  -17.3461   26.6064 H   0  0  0  0  0  0  0  0  0  0  0  0
   -2.6594  -22.8035   22.2095 H   0  0  0  0  0  0  0  0  0  0  0  0
   -6.3238  -24.2440   23.8849 H   0  0  0  0  0  0  0  0  0  0  0  0
   -6.2826  -22.4758   25.6203 H   0  0  0  0  0  0  0  0  0  0  0  0
   -4.9219  -19.8865   26.1462 H   0  0  0  0  0  0  0  0  0  0  0  0
  1  2  2  0
  2  3  1  0
  3  4  1  0
  4  5  2  0
  5  6  1  0
  6  7  2  0
  7  8  1  0
  2  9  1  0
  9 10  1  0
 10 11  1  0
 11 12  1  0
 12 13  2  0
 13 14  1  0
 14 15  2  0
 15 16  1  0
 16 17  1  0
 16 18  2  0
 18 19  1  0
 19 20  2  0
 20 21  1  0
  8  4  1  0
 21 12  1  0
 20 14  1  0
  3 22  1  0
  3 23  1  0
  5 24  1  0
  6 25  1  0
  7 26  1  0
  9 27  1  0
 10 28  1  0
 10 29  1  0
 11 30  1  0
 11 31  1  0
 15 32  1  0
 18 33  1  0
 19 34  1  0
 21 35  1  0
M  END
>  <Energy>  (187) 
611.28502660530785

>  <compound_id>  (187) 
4845

>  <target_id>  (187) 
1

>  <reference_id>  (187) 
94

>  <inspiration_ids>  (187) 
[94, 66]

>  <energy_score>  (187) 
575.5346551274318

>  <distance_score>  (187) 
13.336929044557833

>  <path>  (187) 
/opt/xchem-fragalysis-2/maxwin/BulkDock/SCRATCH/511016/C4845-P94/C4845-P94.minimised.mol

>  <scratch_subdir>  (187) 
/opt/xchem-fragalysis-2/maxwin/BulkDock/SCRATCH/511016/C4845-P94

>  <fragmenstein_runtime>  (187) 
20.702542304992676

>  <fragmenstein_outcome>  (187) 
too moved

>  <fragmenstein_mode>  (187) 
expansion

>  <fragmenstein_error>  (187) 


$$$$
C4845-P66
     RDKit          3D

 35 37  0  0  0  0  0  0  0  0999 V2000
   -4.0499  -15.9841   19.7130 O   0  0  0  0  0  0  0  0  0  0  0  0
   -3.0525  -15.3436   19.9634 C   0  0  0  0  0  0  0  0  0  0  0  0
   -2.2398  -14.6820   18.8874 C   0  0  0  0  0  0  0  0  0  0  0  0
   -2.2002  -13.6600   17.7253 C   0  0  0  0  0  0  0  0  0  0  0  0
   -2.6290  -12.3329   17.6843 C   0  0  0  0  0  0  0  0  0  0  0  0
   -1.9002  -11.5139   16.7534 C   0  0  0  0  0  0  0  0  0  0  0  0
   -0.9625  -12.2332   16.0532 C   0  0  0  0  0  0  0  0  0  0  0  0
   -0.9828  -13.8883   16.4858 S   0  0  0  0  0  0  0  0  0  0  0  0
   -2.3876  -14.9243   21.4353 N   0  0  0  0  0  0  0  0  0  0  0  0
   -3.0425  -15.3166   23.3682 C   0  0  0  0  0  0  0  0  0  0  0  0
   -2.7732  -16.0782   25.1719 C   0  0  0  0  0  0  0  0  0  0  0  0
   -2.7075  -17.5226   26.5410 C   0  0  0  0  0  0  0  0  0  0  0  0
   -3.9610  -17.7920   27.5669 N   0  0  0  0  0  0  0  0  0  0  0  0
   -5.2642  -19.1404   27.1124 C   0  0  0  0  0  0  0  0  0  0  0  0
   -6.4736  -19.6699   27.3842 C   0  0  0  0  0  0  0  0  0  0  0  0
   -6.5388  -21.0999   26.9761 C   0  0  0  0  0  0  0  0  0  0  0  0
   -7.4656  -21.8679   27.5623 F   0  0  0  0  0  0  0  0  0  0  0  0
   -5.8032  -21.8395   26.0327 C   0  0  0  0  0  0  0  0  0  0  0  0
   -4.9431  -21.1845   25.2061 C   0  0  0  0  0  0  0  0  0  0  0  0
   -4.4253  -20.0412   25.8608 C   0  0  0  0  0  0  0  0  0  0  0  0
   -2.6947  -19.2412   26.0228 N   0  0  0  0  0  0  0  0  0  0  0  0
   -1.3646  -15.3314   18.8011 H   0  0  0  0  0  0  0  0  0  0  0  0
   -2.2175  -13.8202   19.5655 H   0  0  0  0  0  0  0  0  0  0  0  0
   -3.3522  -11.9313   18.3854 H   0  0  0  0  0  0  0  0  0  0  0  0
   -2.0580  -10.4503   16.6234 H   0  0  0  0  0  0  0  0  0  0  0  0
   -0.2801  -11.8776   15.2935 H   0  0  0  0  0  0  0  0  0  0  0  0
   -1.5577  -14.4826   21.2983 H   0  0  0  0  0  0  0  0  0  0  0  0
   -1.9841  -15.1128   23.6812 H   0  0  0  0  0  0  0  0  0  0  0  0
   -4.0384  -14.9449   23.5225 H   0  0  0  0  0  0  0  0  0  0  0  0
   -2.3532  -15.1655   25.6467 H   0  0  0  0  0  0  0  0  0  0  0  0
   -2.1304  -16.8151   24.9026 H   0  0  0  0  0  0  0  0  0  0  0  0
   -7.1141  -19.1916   28.1099 H   0  0  0  0  0  0  0  0  0  0  0  0
   -6.0673  -22.8744   25.8444 H   0  0  0  0  0  0  0  0  0  0  0  0
   -4.4265  -21.7212   24.4146 H   0  0  0  0  0  0  0  0  0  0  0  0
   -1.9926  -19.5063   25.3732 H   0  0  0  0  0  0  0  0  0  0  0  0
  1  2  2  0
  2  3  1  0
  3  4  1  0
  4  5  2  0
  5  6  1  0
  6  7  2  0
  7  8  1  0
  2  9  1  0
  9 10  1  0
 10 11  1  0
 11 12  1  0
 12 13  2  0
 13 14  1  0
 14 15  2  0
 15 16  1  0
 16 17  1  0
 16 18  2  0
 18 19  1  0
 19 20  2  0
 20 21  1  0
  8  4  1  0
 21 12  1  0
 20 14  1  0
  3 22  1  0
  3 23  1  0
  5 24  1  0
  6 25  1  0
  7 26  1  0
  9 27  1  0
 10 28  1  0
 10 29  1  0
 11 30  1  0
 11 31  1  0
 15 32  1  0
 18 33  1  0
 19 34  1  0
 21 35  1  0
M  END
>  <Energy>  (188) 
763.87771417927411

>  <compound_id>  (188) 
4845

>  <target_id>  (188) 
1

>  <reference_id>  (188) 
66

>  <inspiration_ids>  (188) 
[94, 66]

>  <energy_score>  (188) 
728.1273427013657

>  <distance_score>  (188) 
15.4906859868453

>  <path>  (188) 
/opt/xchem-fragalysis-2/maxwin/BulkDock/SCRATCH/511016/C4845-P66/C4845-P66.minimised.mol

>  <scratch_subdir>  (188) 
/opt/xchem-fragalysis-2/maxwin/BulkDock/SCRATCH/511016/C4845-P66

>  <fragmenstein_runtime>  (188) 
31.528040170669556

>  <fragmenstein_outcome>  (188) 
too moved

>  <fragmenstein_mode>  (188) 
expansion

>  <fragmenstein_error>  (188) 


$$$$
C4846-P94
     RDKit          3D

 41 44  0  0  0  0  0  0  0  0999 V2000
   -1.3206  -14.9722   17.3519 O   0  0  0  0  0  0  0  0  0  0  0  0
   -0.4883  -15.8098   17.5843 C   0  0  0  0  0  0  0  0  0  0  0  0
    0.9714  -15.5724   16.9324 C   0  0  0  0  0  0  0  0  0  0  0  0
    1.4833  -14.1082   16.7410 C   0  0  0  0  0  0  0  0  0  0  0  0
    0.7720  -12.9377   16.5940 C   0  0  0  0  0  0  0  0  0  0  0  0
    1.6345  -11.8928   16.4036 O   0  0  0  0  0  0  0  0  0  0  0  0
    2.9069  -12.4337   16.3903 C   0  0  0  0  0  0  0  0  0  0  0  0
    4.0842  -11.6166   16.0947 C   0  0  0  0  0  0  0  0  0  0  0  0
    5.4284  -11.9417   16.1848 C   0  0  0  0  0  0  0  0  0  0  0  0
    6.2949  -10.8938   15.7378 C   0  0  0  0  0  0  0  0  0  0  0  0
    5.5899   -9.7906   15.3173 C   0  0  0  0  0  0  0  0  0  0  0  0
    3.9112   -9.9902   15.5282 S   0  0  0  0  0  0  0  0  0  0  0  0
    2.8649  -13.7571   16.6019 N   0  0  0  0  0  0  0  0  0  0  0  0
   -0.5673  -17.0486   18.4016 N   0  0  0  0  0  0  0  0  0  0  0  0
   -1.7480  -17.6988   19.1177 C   0  0  0  0  0  0  0  0  0  0  0  0
   -1.4324  -18.8740   20.1210 C   0  0  0  0  0  0  0  0  0  0  0  0
   -2.5750  -19.5365   20.9788 C   0  0  0  0  0  0  0  0  0  0  0  0
   -3.8858  -19.5771   20.7789 N   0  0  0  0  0  0  0  0  0  0  0  0
   -4.4250  -20.4330   21.7381 C   0  0  0  0  0  0  0  0  0  0  0  0
   -5.7341  -20.9272   21.9013 C   0  0  0  0  0  0  0  0  0  0  0  0
   -5.9971  -21.8570   22.9205 C   0  0  0  0  0  0  0  0  0  0  0  0
   -4.9989  -22.2323   23.8188 C   0  0  0  0  0  0  0  0  0  0  0  0
   -3.6973  -21.7286   23.6925 C   0  0  0  0  0  0  0  0  0  0  0  0
   -3.4429  -20.8604   22.6172 C   0  0  0  0  0  0  0  0  0  0  0  0
   -2.2852  -20.2946   22.1188 N   0  0  0  0  0  0  0  0  0  0  0  0
    0.9227  -16.0228   15.9327 H   0  0  0  0  0  0  0  0  0  0  0  0
    1.7266  -16.1221   17.4899 H   0  0  0  0  0  0  0  0  0  0  0  0
   -0.2788  -12.6848   16.5968 H   0  0  0  0  0  0  0  0  0  0  0  0
    5.7668  -12.9071   16.5416 H   0  0  0  0  0  0  0  0  0  0  0  0
    7.3763  -10.9528   15.7013 H   0  0  0  0  0  0  0  0  0  0  0  0
    5.9829   -8.8745   14.8998 H   0  0  0  0  0  0  0  0  0  0  0  0
    0.3486  -17.4759   18.4460 H   0  0  0  0  0  0  0  0  0  0  0  0
   -2.4117  -18.0641   18.3263 H   0  0  0  0  0  0  0  0  0  0  0  0
   -2.2815  -16.8896   19.6248 H   0  0  0  0  0  0  0  0  0  0  0  0
   -0.9675  -19.6859   19.5466 H   0  0  0  0  0  0  0  0  0  0  0  0
   -0.6649  -18.5205   20.8194 H   0  0  0  0  0  0  0  0  0  0  0  0
   -6.5094  -20.6290   21.2038 H   0  0  0  0  0  0  0  0  0  0  0  0
   -6.9893  -22.2932   23.0016 H   0  0  0  0  0  0  0  0  0  0  0  0
   -5.2248  -22.9505   24.6048 H   0  0  0  0  0  0  0  0  0  0  0  0
   -2.9036  -22.0488   24.3601 H   0  0  0  0  0  0  0  0  0  0  0  0
   -1.3570  -20.4598   22.4869 H   0  0  0  0  0  0  0  0  0  0  0  0
  1  2  2  0
  2  3  1  0
  3  4  1  0
  4  5  2  0
  5  6  1  0
  6  7  1  0
  7  8  1  0
  8  9  2  0
  9 10  1  0
 10 11  2  0
 11 12  1  0
  7 13  2  0
  2 14  1  0
 14 15  1  0
 15 16  1  0
 16 17  1  0
 17 18  2  0
 18 19  1  0
 19 20  2  0
 20 21  1  0
 21 22  2  0
 22 23  1  0
 23 24  2  0
 24 25  1  0
 13  4  1  0
 25 17  1  0
 12  8  1  0
 24 19  1  0
  3 26  1  0
  3 27  1  0
  5 28  1  0
  9 29  1  0
 10 30  1  0
 11 31  1  0
 14 32  1  0
 15 33  1  0
 15 34  1  0
 16 35  1  0
 16 36  1  0
 20 37  1  0
 21 38  1  0
 22 39  1  0
 23 40  1  0
 25 41  1  0
M  END
>  <Energy>  (189) 
67.686207991970804

>  <compound_id>  (189) 
4846

>  <target_id>  (189) 
1

>  <reference_id>  (189) 
94

>  <inspiration_ids>  (189) 
[94, 66]

>  <energy_score>  (189) 
-15.197035481321791

>  <distance_score>  (189) 
13.407382778609417

>  <path>  (189) 
/opt/xchem-fragalysis-2/maxwin/BulkDock/SCRATCH/511016/C4846-P94/C4846-P94.minimised.mol

>  <scratch_subdir>  (189) 
/opt/xchem-fragalysis-2/maxwin/BulkDock/SCRATCH/511016/C4846-P94

>  <fragmenstein_runtime>  (189) 
30.932939291000366

>  <fragmenstein_outcome>  (189) 
too moved

>  <fragmenstein_mode>  (189) 
expansion

>  <fragmenstein_error>  (189) 


$$$$
C4846-P66
     RDKit          3D

 41 44  0  0  0  0  0  0  0  0999 V2000
    0.9807  -13.5012   25.6353 O   0  0  0  0  0  0  0  0  0  0  0  0
    1.0852  -13.9655   26.7165 C   0  0  0  0  0  0  0  0  0  0  0  0
    3.0494  -14.0215   27.2525 C   0  0  0  0  0  0  0  0  0  0  0  0
    4.8057  -13.1137   27.4459 C   0  0  0  0  0  0  0  0  0  0  0  0
    5.3026  -12.0421   28.2539 C   0  0  0  0  0  0  0  0  0  0  0  0
    6.3895  -11.3918   27.7353 O   0  0  0  0  0  0  0  0  0  0  0  0
    6.7229  -11.9601   26.5444 C   0  0  0  0  0  0  0  0  0  0  0  0
    7.8331  -11.3721   25.7933 C   0  0  0  0  0  0  0  0  0  0  0  0
    8.1086  -10.0086   25.6856 C   0  0  0  0  0  0  0  0  0  0  0  0
    9.4075   -9.7258   25.1559 C   0  0  0  0  0  0  0  0  0  0  0  0
   10.0669  -10.8816   24.8056 C   0  0  0  0  0  0  0  0  0  0  0  0
    9.1209  -12.2813   25.1256 S   0  0  0  0  0  0  0  0  0  0  0  0
    5.8658  -12.9474   26.2472 N   0  0  0  0  0  0  0  0  0  0  0  0
   -0.3041  -14.7911   27.9076 N   0  0  0  0  0  0  0  0  0  0  0  0
   -2.0491  -15.1933   27.6136 C   0  0  0  0  0  0  0  0  0  0  0  0
   -2.9625  -16.9289   27.3274 C   0  0  0  0  0  0  0  0  0  0  0  0
   -4.6187  -17.4498   27.9735 C   0  0  0  0  0  0  0  0  0  0  0  0
   -4.9316  -18.7152   28.3546 N   0  0  0  0  0  0  0  0  0  0  0  0
   -5.3103  -18.5015   29.6978 C   0  0  0  0  0  0  0  0  0  0  0  0
   -4.9901  -19.1440   30.9119 C   0  0  0  0  0  0  0  0  0  0  0  0
   -5.3888  -18.5738   32.1247 C   0  0  0  0  0  0  0  0  0  0  0  0
   -6.1820  -17.4264   32.1286 C   0  0  0  0  0  0  0  0  0  0  0  0
   -6.5291  -16.7776   30.9373 C   0  0  0  0  0  0  0  0  0  0  0  0
   -5.9650  -17.3049   29.7823 C   0  0  0  0  0  0  0  0  0  0  0  0
   -5.7459  -16.7851   28.5348 N   0  0  0  0  0  0  0  0  0  0  0  0
    3.2493  -14.9923   27.7516 H   0  0  0  0  0  0  0  0  0  0  0  0
    3.4946  -14.2341   26.2474 H   0  0  0  0  0  0  0  0  0  0  0  0
    4.9478  -11.4495   29.0551 H   0  0  0  0  0  0  0  0  0  0  0  0
    7.4294   -9.2477   26.0512 H   0  0  0  0  0  0  0  0  0  0  0  0
    9.8362   -8.7368   25.0504 H   0  0  0  0  0  0  0  0  0  0  0  0
   11.0552  -10.9851   24.3781 H   0  0  0  0  0  0  0  0  0  0  0  0
    0.1053  -15.1912   28.7748 H   0  0  0  0  0  0  0  0  0  0  0  0
   -1.4877  -16.0649   27.9079 H   0  0  0  0  0  0  0  0  0  0  0  0
   -2.3865  -14.8827   28.6017 H   0  0  0  0  0  0  0  0  0  0  0  0
   -3.0794  -17.1065   26.2321 H   0  0  0  0  0  0  0  0  0  0  0  0
   -2.2340  -17.7362   27.4577 H   0  0  0  0  0  0  0  0  0  0  0  0
   -4.4099  -20.0566   30.9097 H   0  0  0  0  0  0  0  0  0  0  0  0
   -5.1559  -19.0754   33.0592 H   0  0  0  0  0  0  0  0  0  0  0  0
   -6.5454  -17.0407   33.0782 H   0  0  0  0  0  0  0  0  0  0  0  0
   -7.0825  -15.8468   30.9416 H   0  0  0  0  0  0  0  0  0  0  0  0
   -6.1207  -15.8739   28.3454 H   0  0  0  0  0  0  0  0  0  0  0  0
  1  2  2  0
  2  3  1  0
  3  4  1  0
  4  5  2  0
  5  6  1  0
  6  7  1  0
  7  8  1  0
  8  9  2  0
  9 10  1  0
 10 11  2  0
 11 12  1  0
  7 13  2  0
  2 14  1  0
 14 15  1  0
 15 16  1  0
 16 17  1  0
 17 18  2  0
 18 19  1  0
 19 20  2  0
 20 21  1  0
 21 22  2  0
 22 23  1  0
 23 24  2  0
 24 25  1  0
 13  4  1  0
 25 17  1  0
 12  8  1  0
 24 19  1  0
  3 26  1  0
  3 27  1  0
  5 28  1  0
  9 29  1  0
 10 30  1  0
 11 31  1  0
 14 32  1  0
 15 33  1  0
 15 34  1  0
 16 35  1  0
 16 36  1  0
 20 37  1  0
 21 38  1  0
 22 39  1  0
 23 40  1  0
 25 41  1  0
M  END
>  <Energy>  (190) 
600.97054496399608

>  <compound_id>  (190) 
4846

>  <target_id>  (190) 
1

>  <reference_id>  (190) 
66

>  <inspiration_ids>  (190) 
[94, 66]

>  <energy_score>  (190) 
518.0873014906945

>  <distance_score>  (190) 
12.370393099191588

>  <path>  (190) 
/opt/xchem-fragalysis-2/maxwin/BulkDock/SCRATCH/511016/C4846-P66/C4846-P66.minimised.mol

>  <scratch_subdir>  (190) 
/opt/xchem-fragalysis-2/maxwin/BulkDock/SCRATCH/511016/C4846-P66

>  <fragmenstein_runtime>  (190) 
26.303075551986694

>  <fragmenstein_outcome>  (190) 
too moved

>  <fragmenstein_mode>  (190) 
expansion

>  <fragmenstein_error>  (190) 


$$$$
C4847-P94
     RDKit          3D

 41 44  0  0  0  0  0  0  0  0999 V2000
    1.2823  -11.8368   23.0579 O   0  0  0  0  0  0  0  0  0  0  0  0
    2.1999  -12.4047   23.5853 C   0  0  0  0  0  0  0  0  0  0  0  0
    3.7493  -12.3180   22.4451 C   0  0  0  0  0  0  0  0  0  0  0  0
    4.7141  -12.5086   20.7265 C   0  0  0  0  0  0  0  0  0  0  0  0
    4.4992  -13.0751   19.4511 C   0  0  0  0  0  0  0  0  0  0  0  0
    5.7080  -13.0575   18.2574 S   0  0  0  0  0  0  0  0  0  0  0  0
    6.6425  -12.1240   19.3055 C   0  0  0  0  0  0  0  0  0  0  0  0
    7.9115  -11.7346   18.6871 C   0  0  0  0  0  0  0  0  0  0  0  0
    8.0338  -11.0776   17.4685 C   0  0  0  0  0  0  0  0  0  0  0  0
    9.3511  -11.1003   16.9279 C   0  0  0  0  0  0  0  0  0  0  0  0
   10.2287  -11.7410   17.7675 C   0  0  0  0  0  0  0  0  0  0  0  0
    9.4316  -12.4186   19.1214 S   0  0  0  0  0  0  0  0  0  0  0  0
    6.0965  -11.9181   20.5257 N   0  0  0  0  0  0  0  0  0  0  0  0
    2.0812  -13.2735   25.0428 N   0  0  0  0  0  0  0  0  0  0  0  0
    0.5853  -13.5587   26.2880 C   0  0  0  0  0  0  0  0  0  0  0  0
   -1.0686  -14.6842   27.2652 C   0  0  0  0  0  0  0  0  0  0  0  0
   -2.1287  -16.4286   27.3088 C   0  0  0  0  0  0  0  0  0  0  0  0
   -1.9669  -17.6466   26.6075 N   0  0  0  0  0  0  0  0  0  0  0  0
   -3.1800  -18.3476   26.4411 C   0  0  0  0  0  0  0  0  0  0  0  0
   -3.5335  -19.4982   25.7111 C   0  0  0  0  0  0  0  0  0  0  0  0
   -4.7727  -20.1034   25.9120 C   0  0  0  0  0  0  0  0  0  0  0  0
   -5.6724  -19.5413   26.8003 C   0  0  0  0  0  0  0  0  0  0  0  0
   -5.4049  -18.3571   27.4797 C   0  0  0  0  0  0  0  0  0  0  0  0
   -4.1414  -17.8013   27.2502 C   0  0  0  0  0  0  0  0  0  0  0  0
   -3.4445  -16.7937   27.9233 N   0  0  0  0  0  0  0  0  0  0  0  0
    3.2762  -13.0302   21.8026 H   0  0  0  0  0  0  0  0  0  0  0  0
    3.9207  -11.2609   22.3689 H   0  0  0  0  0  0  0  0  0  0  0  0
    3.7265  -13.6515   18.9861 H   0  0  0  0  0  0  0  0  0  0  0  0
    7.1820  -10.6793   16.9287 H   0  0  0  0  0  0  0  0  0  0  0  0
    9.6309  -10.6450   15.9848 H   0  0  0  0  0  0  0  0  0  0  0  0
   11.2906  -11.8855   17.6265 H   0  0  0  0  0  0  0  0  0  0  0  0
    3.0127  -13.5831   25.3173 H   0  0  0  0  0  0  0  0  0  0  0  0
    1.0290  -12.6841   26.7187 H   0  0  0  0  0  0  0  0  0  0  0  0
    1.3250  -14.2479   26.6517 H   0  0  0  0  0  0  0  0  0  0  0  0
   -0.8921  -15.0246   28.2890 H   0  0  0  0  0  0  0  0  0  0  0  0
   -1.9300  -14.5865   26.5222 H   0  0  0  0  0  0  0  0  0  0  0  0
   -2.8678  -19.9685   25.0053 H   0  0  0  0  0  0  0  0  0  0  0  0
   -5.0083  -21.0260   25.3879 H   0  0  0  0  0  0  0  0  0  0  0  0
   -6.5909  -20.0648   26.9957 H   0  0  0  0  0  0  0  0  0  0  0  0
   -6.0924  -17.9474   28.2122 H   0  0  0  0  0  0  0  0  0  0  0  0
   -3.7844  -16.4354   28.7943 H   0  0  0  0  0  0  0  0  0  0  0  0
  1  2  2  0
  2  3  1  0
  3  4  1  0
  4  5  2  0
  5  6  1  0
  6  7  1  0
  7  8  1  0
  8  9  2  0
  9 10  1  0
 10 11  2  0
 11 12  1  0
  7 13  2  0
  2 14  1  0
 14 15  1  0
 15 16  1  0
 16 17  1  0
 17 18  2  0
 18 19  1  0
 19 20  2  0
 20 21  1  0
 21 22  2  0
 22 23  1  0
 23 24  2  0
 24 25  1  0
 13  4  1  0
 25 17  1  0
 12  8  1  0
 24 19  1  0
  3 26  1  0
  3 27  1  0
  5 28  1  0
  9 29  1  0
 10 30  1  0
 11 31  1  0
 14 32  1  0
 15 33  1  0
 15 34  1  0
 16 35  1  0
 16 36  1  0
 20 37  1  0
 21 38  1  0
 22 39  1  0
 23 40  1  0
 25 41  1  0
M  END
>  <Energy>  (191) 
735.66196796432064

>  <compound_id>  (191) 
4847

>  <target_id>  (191) 
1

>  <reference_id>  (191) 
94

>  <inspiration_ids>  (191) 
[94, 66]

>  <energy_score>  (191) 
606.6159999336517

>  <distance_score>  (191) 
11.52082347958405

>  <path>  (191) 
/opt/xchem-fragalysis-2/maxwin/BulkDock/SCRATCH/511016/C4847-P94/C4847-P94.minimised.mol

>  <scratch_subdir>  (191) 
/opt/xchem-fragalysis-2/maxwin/BulkDock/SCRATCH/511016/C4847-P94

>  <fragmenstein_runtime>  (191) 
38.945149421691895

>  <fragmenstein_outcome>  (191) 
too moved

>  <fragmenstein_mode>  (191) 
expansion

>  <fragmenstein_error>  (191) 


$$$$
C4847-P66
     RDKit          3D

 41 44  0  0  0  0  0  0  0  0999 V2000
    1.3558  -11.7887   22.9897 O   0  0  0  0  0  0  0  0  0  0  0  0
    2.3173  -12.2813   23.5149 C   0  0  0  0  0  0  0  0  0  0  0  0
    3.9505  -12.0672   22.2984 C   0  0  0  0  0  0  0  0  0  0  0  0
    5.2682  -11.8417   20.7225 C   0  0  0  0  0  0  0  0  0  0  0  0
    5.5569  -12.4009   19.4315 C   0  0  0  0  0  0  0  0  0  0  0  0
    6.4850  -11.0579   18.0276 S   0  0  0  0  0  0  0  0  0  0  0  0
    7.2191   -9.8239   19.1924 C   0  0  0  0  0  0  0  0  0  0  0  0
    7.3083   -7.8658   19.3787 C   0  0  0  0  0  0  0  0  0  0  0  0
    8.8199   -7.1044   20.0623 C   0  0  0  0  0  0  0  0  0  0  0  0
    9.4644   -6.0310   20.9788 C   0  0  0  0  0  0  0  0  0  0  0  0
    8.4678   -5.1622   20.7876 C   0  0  0  0  0  0  0  0  0  0  0  0
    7.4030   -6.4479   20.8858 S   0  0  0  0  0  0  0  0  0  0  0  0
    6.5595  -10.6865   20.2855 N   0  0  0  0  0  0  0  0  0  0  0  0
    2.1453  -13.1886   25.0907 N   0  0  0  0  0  0  0  0  0  0  0  0
    0.5717  -13.4834   26.3407 C   0  0  0  0  0  0  0  0  0  0  0  0
   -0.7204  -14.7368   27.6735 C   0  0  0  0  0  0  0  0  0  0  0  0
   -1.9592  -16.3318   27.4063 C   0  0  0  0  0  0  0  0  0  0  0  0
   -1.7649  -17.6091   26.7967 N   0  0  0  0  0  0  0  0  0  0  0  0
   -3.0150  -18.2910   26.5399 C   0  0  0  0  0  0  0  0  0  0  0  0
   -3.4262  -19.4574   25.8502 C   0  0  0  0  0  0  0  0  0  0  0  0
   -4.7109  -19.9964   26.0174 C   0  0  0  0  0  0  0  0  0  0  0  0
   -5.6185  -19.3670   26.8438 C   0  0  0  0  0  0  0  0  0  0  0  0
   -5.3019  -18.1687   27.4647 C   0  0  0  0  0  0  0  0  0  0  0  0
   -3.9996  -17.6751   27.2543 C   0  0  0  0  0  0  0  0  0  0  0  0
   -3.2995  -16.6569   27.9087 N   0  0  0  0  0  0  0  0  0  0  0  0
    3.5309  -12.7765   21.5790 H   0  0  0  0  0  0  0  0  0  0  0  0
    4.0237  -11.0093   22.4031 H   0  0  0  0  0  0  0  0  0  0  0  0
    5.1058  -13.1944   18.8576 H   0  0  0  0  0  0  0  0  0  0  0  0
    9.2032   -6.4271   19.2819 H   0  0  0  0  0  0  0  0  0  0  0  0
   10.5161   -5.8300   21.1495 H   0  0  0  0  0  0  0  0  0  0  0  0
    8.4416   -4.1478   21.1684 H   0  0  0  0  0  0  0  0  0  0  0  0
    3.0736  -13.4531   25.4158 H   0  0  0  0  0  0  0  0  0  0  0  0
    1.4206  -14.0517   26.6942 H   0  0  0  0  0  0  0  0  0  0  0  0
    0.7432  -12.4948   26.7353 H   0  0  0  0  0  0  0  0  0  0  0  0
   -0.2202  -15.1883   28.5979 H   0  0  0  0  0  0  0  0  0  0  0  0
   -1.7038  -14.4587   28.1398 H   0  0  0  0  0  0  0  0  0  0  0  0
   -2.7938  -20.0161   25.1812 H   0  0  0  0  0  0  0  0  0  0  0  0
   -4.9694  -20.9250   25.5144 H   0  0  0  0  0  0  0  0  0  0  0  0
   -6.5715  -19.8280   27.0333 H   0  0  0  0  0  0  0  0  0  0  0  0
   -5.9917  -17.6852   28.1496 H   0  0  0  0  0  0  0  0  0  0  0  0
   -3.7216  -16.2452   28.7110 H   0  0  0  0  0  0  0  0  0  0  0  0
  1  2  2  0
  2  3  1  0
  3  4  1  0
  4  5  2  0
  5  6  1  0
  6  7  1  0
  7  8  1  0
  8  9  2  0
  9 10  1  0
 10 11  2  0
 11 12  1  0
  7 13  2  0
  2 14  1  0
 14 15  1  0
 15 16  1  0
 16 17  1  0
 17 18  2  0
 18 19  1  0
 19 20  2  0
 20 21  1  0
 21 22  2  0
 22 23  1  0
 23 24  2  0
 24 25  1  0
 13  4  1  0
 25 17  1  0
 12  8  1  0
 24 19  1  0
  3 26  1  0
  3 27  1  0
  5 28  1  0
  9 29  1  0
 10 30  1  0
 11 31  1  0
 14 32  1  0
 15 33  1  0
 15 34  1  0
 16 35  1  0
 16 36  1  0
 20 37  1  0
 21 38  1  0
 22 39  1  0
 23 40  1  0
 25 41  1  0
M  END
>  <Energy>  (192) 
1393.892352611151

>  <compound_id>  (192) 
4847

>  <target_id>  (192) 
1

>  <reference_id>  (192) 
66

>  <inspiration_ids>  (192) 
[94, 66]

>  <energy_score>  (192) 
1264.8463845804913

>  <distance_score>  (192) 
10.51240697513797

>  <path>  (192) 
/opt/xchem-fragalysis-2/maxwin/BulkDock/SCRATCH/511016/C4847-P66/C4847-P66.minimised.mol

>  <scratch_subdir>  (192) 
/opt/xchem-fragalysis-2/maxwin/BulkDock/SCRATCH/511016/C4847-P66

>  <fragmenstein_runtime>  (192) 
32.14797377586365

>  <fragmenstein_outcome>  (192) 
too moved

>  <fragmenstein_mode>  (192) 
expansion

>  <fragmenstein_error>  (192) 


$$$$
C4848-P94
     RDKit          3D

 41 43  0  0  0  0  0  0  0  0999 V2000
   -0.6427  -20.9347   31.4651 C   0  0  0  0  0  0  0  0  0  0  0  0
   -0.1953  -20.2848   30.1130 C   0  0  0  0  0  0  0  0  0  0  0  0
   -1.2587  -20.4704   28.8480 N   0  0  0  0  0  0  0  0  0  0  0  0
   -1.4134  -19.7436   27.1564 C   0  0  0  0  0  0  0  0  0  0  0  0
   -1.6566  -17.8668   26.2482 C   0  0  0  0  0  0  0  0  0  0  0  0
   -1.9038  -16.1985   24.8119 C   0  0  0  0  0  0  0  0  0  0  0  0
   -0.8138  -14.4787   24.5685 N   0  0  0  0  0  0  0  0  0  0  0  0
    0.9016  -14.1515   23.8162 C   0  0  0  0  0  0  0  0  0  0  0  0
    1.5600  -15.0010   23.2684 O   0  0  0  0  0  0  0  0  0  0  0  0
    1.9957  -12.4209   23.8559 C   0  0  0  0  0  0  0  0  0  0  0  0
    3.0772  -11.7226   22.3102 C   0  0  0  0  0  0  0  0  0  0  0  0
    3.6494  -10.3920   22.0108 C   0  0  0  0  0  0  0  0  0  0  0  0
    4.4393  -10.0959   20.8467 C   0  0  0  0  0  0  0  0  0  0  0  0
    4.5495  -11.2011   20.0850 C   0  0  0  0  0  0  0  0  0  0  0  0
    3.7205  -12.4732   20.7947 S   0  0  0  0  0  0  0  0  0  0  0  0
   -0.5322  -20.9603   27.6292 N   0  0  0  0  0  0  0  0  0  0  0  0
   -0.9821  -22.2125   28.5162 C   0  0  0  0  0  0  0  0  0  0  0  0
   -0.5869  -23.5261   28.7925 C   0  0  0  0  0  0  0  0  0  0  0  0
   -1.3094  -24.1719   29.8037 C   0  0  0  0  0  0  0  0  0  0  0  0
   -2.3149  -23.4865   30.5062 C   0  0  0  0  0  0  0  0  0  0  0  0
   -2.7442  -22.2071   30.1657 C   0  0  0  0  0  0  0  0  0  0  0  0
   -2.0140  -21.6570   29.1296 C   0  0  0  0  0  0  0  0  0  0  0  0
    0.1281  -20.8075   32.2205 H   0  0  0  0  0  0  0  0  0  0  0  0
   -0.6237  -22.0202   31.4164 H   0  0  0  0  0  0  0  0  0  0  0  0
   -1.6014  -20.5839   31.8505 H   0  0  0  0  0  0  0  0  0  0  0  0
    0.6679  -20.9078   29.9343 H   0  0  0  0  0  0  0  0  0  0  0  0
    0.0700  -19.2332   30.1555 H   0  0  0  0  0  0  0  0  0  0  0  0
   -2.2704  -17.4408   27.0574 H   0  0  0  0  0  0  0  0  0  0  0  0
   -0.6092  -17.8259   26.5459 H   0  0  0  0  0  0  0  0  0  0  0  0
   -2.4038  -15.5408   25.5374 H   0  0  0  0  0  0  0  0  0  0  0  0
   -2.8583  -15.9973   24.3178 H   0  0  0  0  0  0  0  0  0  0  0  0
   -1.1355  -13.6455   25.0453 H   0  0  0  0  0  0  0  0  0  0  0  0
    1.3204  -11.7916   23.2952 H   0  0  0  0  0  0  0  0  0  0  0  0
    2.9202  -12.9988   23.9424 H   0  0  0  0  0  0  0  0  0  0  0  0
    3.5158   -9.5217   22.6099 H   0  0  0  0  0  0  0  0  0  0  0  0
    4.8621   -9.1296   20.6086 H   0  0  0  0  0  0  0  0  0  0  0  0
    5.0626  -11.3298   19.1428 H   0  0  0  0  0  0  0  0  0  0  0  0
    0.2606  -23.9942   28.3078 H   0  0  0  0  0  0  0  0  0  0  0  0
   -1.0017  -25.1622   30.1330 H   0  0  0  0  0  0  0  0  0  0  0  0
   -2.6463  -23.8606   31.4657 H   0  0  0  0  0  0  0  0  0  0  0  0
   -3.3600  -21.6122   30.8300 H   0  0  0  0  0  0  0  0  0  0  0  0
  1  2  1  0
  2  3  1  0
  3  4  1  0
  4  5  1  0
  5  6  1  0
  6  7  1  0
  7  8  1  0
  8  9  2  0
  8 10  1  0
 10 11  1  0
 11 12  2  0
 12 13  1  0
 13 14  2  0
 14 15  1  0
  4 16  2  0
 16 17  1  0
 17 18  2  0
 18 19  1  0
 19 20  2  0
 20 21  1  0
 21 22  2  0
 22  3  1  0
 15 11  1  0
 22 17  1  0
  1 23  1  0
  1 24  1  0
  1 25  1  0
  2 26  1  0
  2 27  1  0
  5 28  1  0
  5 29  1  0
  6 30  1  0
  6 31  1  0
  7 32  1  0
 10 33  1  0
 10 34  1  0
 12 35  1  0
 13 36  1  0
 14 37  1  0
 18 38  1  0
 19 39  1  0
 20 40  1  0
 21 41  1  0
M  END
>  <Energy>  (193) 
1085.3519926513329

>  <compound_id>  (193) 
4848

>  <target_id>  (193) 
1

>  <reference_id>  (193) 
94

>  <inspiration_ids>  (193) 
[94, 66]

>  <energy_score>  (193) 
1017.9825135709401

>  <distance_score>  (193) 
13.521567143596076

>  <path>  (193) 
/opt/xchem-fragalysis-2/maxwin/BulkDock/SCRATCH/511016/C4848-P94/C4848-P94.minimised.mol

>  <scratch_subdir>  (193) 
/opt/xchem-fragalysis-2/maxwin/BulkDock/SCRATCH/511016/C4848-P94

>  <fragmenstein_runtime>  (193) 
38.82910394668579

>  <fragmenstein_outcome>  (193) 
too moved

>  <fragmenstein_mode>  (193) 
expansion

>  <fragmenstein_error>  (193) 


$$$$
C4848-P66
     RDKit          3D

 41 43  0  0  0  0  0  0  0  0999 V2000
   -6.8065  -21.8208   22.5572 C   0  0  0  0  0  0  0  0  0  0  0  0
   -7.1534  -21.0230   21.3034 C   0  0  0  0  0  0  0  0  0  0  0  0
   -8.0372  -19.8881   21.4830 N   0  0  0  0  0  0  0  0  0  0  0  0
   -7.7946  -18.5390   21.1915 C   0  0  0  0  0  0  0  0  0  0  0  0
   -6.6856  -18.0107   20.2377 C   0  0  0  0  0  0  0  0  0  0  0  0
   -6.3626  -16.4747   20.2738 C   0  0  0  0  0  0  0  0  0  0  0  0
   -5.1333  -15.9979   19.5369 N   0  0  0  0  0  0  0  0  0  0  0  0
   -4.8387  -14.6939   18.8718 C   0  0  0  0  0  0  0  0  0  0  0  0
   -5.5378  -13.7356   18.6921 O   0  0  0  0  0  0  0  0  0  0  0  0
   -3.3308  -14.6521   18.3926 C   0  0  0  0  0  0  0  0  0  0  0  0
   -2.6475  -13.2952   17.9752 C   0  0  0  0  0  0  0  0  0  0  0  0
   -1.7199  -13.1019   16.9450 C   0  0  0  0  0  0  0  0  0  0  0  0
   -1.0923  -11.8114   16.9445 C   0  0  0  0  0  0  0  0  0  0  0  0
   -1.5654  -11.0259   17.9669 C   0  0  0  0  0  0  0  0  0  0  0  0
   -2.7615  -11.8391   18.8980 S   0  0  0  0  0  0  0  0  0  0  0  0
   -8.7817  -17.8206   21.7080 N   0  0  0  0  0  0  0  0  0  0  0  0
   -9.7884  -18.7104   22.0278 C   0  0  0  0  0  0  0  0  0  0  0  0
  -11.1107  -18.4802   22.4443 C   0  0  0  0  0  0  0  0  0  0  0  0
  -11.9645  -19.5748   22.6622 C   0  0  0  0  0  0  0  0  0  0  0  0
  -11.5162  -20.8790   22.4772 C   0  0  0  0  0  0  0  0  0  0  0  0
  -10.2143  -21.1253   22.0361 C   0  0  0  0  0  0  0  0  0  0  0  0
   -9.3712  -20.0165   21.8324 C   0  0  0  0  0  0  0  0  0  0  0  0
   -7.6733  -22.3396   22.9693 H   0  0  0  0  0  0  0  0  0  0  0  0
   -6.3458  -21.1736   23.3066 H   0  0  0  0  0  0  0  0  0  0  0  0
   -6.0725  -22.5933   22.3020 H   0  0  0  0  0  0  0  0  0  0  0  0
   -6.2244  -20.6597   20.8552 H   0  0  0  0  0  0  0  0  0  0  0  0
   -7.6223  -21.6792   20.5604 H   0  0  0  0  0  0  0  0  0  0  0  0
   -7.0009  -18.2587   19.2157 H   0  0  0  0  0  0  0  0  0  0  0  0
   -5.7724  -18.5782   20.4073 H   0  0  0  0  0  0  0  0  0  0  0  0
   -7.2113  -15.8980   19.8908 H   0  0  0  0  0  0  0  0  0  0  0  0
   -6.2109  -16.1707   21.3154 H   0  0  0  0  0  0  0  0  0  0  0  0
   -4.2820  -16.5478   19.5844 H   0  0  0  0  0  0  0  0  0  0  0  0
   -2.7122  -15.0726   19.1955 H   0  0  0  0  0  0  0  0  0  0  0  0
   -3.2657  -15.3302   17.5321 H   0  0  0  0  0  0  0  0  0  0  0  0
   -1.4640  -13.8858   16.2416 H   0  0  0  0  0  0  0  0  0  0  0  0
   -0.3365  -11.4931   16.2375 H   0  0  0  0  0  0  0  0  0  0  0  0
   -1.2839  -10.0127   18.2177 H   0  0  0  0  0  0  0  0  0  0  0  0
  -11.4675  -17.4621   22.5624 H   0  0  0  0  0  0  0  0  0  0  0  0
  -12.9966  -19.4025   22.9608 H   0  0  0  0  0  0  0  0  0  0  0  0
  -12.1940  -21.7107   22.6596 H   0  0  0  0  0  0  0  0  0  0  0  0
   -9.8670  -22.1382   21.8730 H   0  0  0  0  0  0  0  0  0  0  0  0
  1  2  1  0
  2  3  1  0
  3  4  1  0
  4  5  1  0
  5  6  1  0
  6  7  1  0
  7  8  1  0
  8  9  2  0
  8 10  1  0
 10 11  1  0
 11 12  2  0
 12 13  1  0
 13 14  2  0
 14 15  1  0
  4 16  2  0
 16 17  1  0
 17 18  2  0
 18 19  1  0
 19 20  2  0
 20 21  1  0
 21 22  2  0
 22  3  1  0
 15 11  1  0
 22 17  1  0
  1 23  1  0
  1 24  1  0
  1 25  1  0
  2 26  1  0
  2 27  1  0
  5 28  1  0
  5 29  1  0
  6 30  1  0
  6 31  1  0
  7 32  1  0
 10 33  1  0
 10 34  1  0
 12 35  1  0
 13 36  1  0
 14 37  1  0
 18 38  1  0
 19 39  1  0
 20 40  1  0
 21 41  1  0
M  END
>  <Energy>  (194) 
59.028509007778794

>  <compound_id>  (194) 
4848

>  <target_id>  (194) 
1

>  <reference_id>  (194) 
66

>  <inspiration_ids>  (194) 
[94, 66]

>  <energy_score>  (194) 
-8.340970072617893

>  <distance_score>  (194) 
15.93381475911549

>  <path>  (194) 
/opt/xchem-fragalysis-2/maxwin/BulkDock/SCRATCH/511016/C4848-P66/C4848-P66.minimised.mol

>  <scratch_subdir>  (194) 
/opt/xchem-fragalysis-2/maxwin/BulkDock/SCRATCH/511016/C4848-P66

>  <fragmenstein_runtime>  (194) 
32.83518695831299

>  <fragmenstein_outcome>  (194) 
too moved

>  <fragmenstein_mode>  (194) 
expansion

>  <fragmenstein_error>  (194) 


$$$$
C4849-P94
     RDKit          3D

 44 46  0  0  0  0  0  0  0  0999 V2000
   -5.4512   -9.5139   28.5056 C   0  0  0  0  0  0  0  0  0  0  0  0
   -4.3631  -10.5216   28.0702 C   0  0  0  0  0  0  0  0  0  0  0  0
   -4.0947  -11.3739   29.2973 C   0  0  0  0  0  0  0  0  0  0  0  0
   -4.7077  -11.2012   26.8237 N   0  0  0  0  0  0  0  0  0  0  0  0
   -3.8926  -11.4288   25.5766 C   0  0  0  0  0  0  0  0  0  0  0  0
   -2.5604  -12.6648   25.4611 C   0  0  0  0  0  0  0  0  0  0  0  0
   -1.0702  -13.7538   24.6180 C   0  0  0  0  0  0  0  0  0  0  0  0
   -0.2038  -12.9889   22.8892 N   0  0  0  0  0  0  0  0  0  0  0  0
   -0.0593  -11.1398   22.2499 C   0  0  0  0  0  0  0  0  0  0  0  0
   -0.5348  -10.1325   22.7216 O   0  0  0  0  0  0  0  0  0  0  0  0
    1.0206  -10.6854   20.8480 C   0  0  0  0  0  0  0  0  0  0  0  0
    1.5554   -9.2108   20.6246 C   0  0  0  0  0  0  0  0  0  0  0  0
    1.0908   -7.9522   20.9524 C   0  0  0  0  0  0  0  0  0  0  0  0
    1.9515   -6.8913   20.5044 C   0  0  0  0  0  0  0  0  0  0  0  0
    3.0580   -7.3551   19.8329 C   0  0  0  0  0  0  0  0  0  0  0  0
    3.0636   -9.0585   19.7365 S   0  0  0  0  0  0  0  0  0  0  0  0
   -4.8056  -11.2009   24.6339 N   0  0  0  0  0  0  0  0  0  0  0  0
   -6.0868  -11.4655   25.1389 C   0  0  0  0  0  0  0  0  0  0  0  0
   -7.2576  -11.8865   24.4731 C   0  0  0  0  0  0  0  0  0  0  0  0
   -8.3391  -12.3947   25.2164 C   0  0  0  0  0  0  0  0  0  0  0  0
   -8.2882  -12.4315   26.6082 C   0  0  0  0  0  0  0  0  0  0  0  0
   -7.1610  -11.9587   27.2933 C   0  0  0  0  0  0  0  0  0  0  0  0
   -6.0630  -11.5031   26.5238 C   0  0  0  0  0  0  0  0  0  0  0  0
   -6.3323   -9.9858   28.9484 H   0  0  0  0  0  0  0  0  0  0  0  0
   -5.7767   -8.8930   27.6632 H   0  0  0  0  0  0  0  0  0  0  0  0
   -5.0451   -8.8341   29.2646 H   0  0  0  0  0  0  0  0  0  0  0  0
   -3.4587   -9.9483   27.8318 H   0  0  0  0  0  0  0  0  0  0  0  0
   -3.3062  -12.0939   29.1305 H   0  0  0  0  0  0  0  0  0  0  0  0
   -4.9877  -11.9110   29.6308 H   0  0  0  0  0  0  0  0  0  0  0  0
   -3.7709  -10.7359   30.1272 H   0  0  0  0  0  0  0  0  0  0  0  0
   -2.9253  -13.3193   26.2234 H   0  0  0  0  0  0  0  0  0  0  0  0
   -1.9923  -11.8651   25.8677 H   0  0  0  0  0  0  0  0  0  0  0  0
   -1.2949  -14.8293   24.4589 H   0  0  0  0  0  0  0  0  0  0  0  0
   -0.6012  -13.5204   25.5770 H   0  0  0  0  0  0  0  0  0  0  0  0
    0.2192  -13.6497   22.2424 H   0  0  0  0  0  0  0  0  0  0  0  0
    0.5023  -10.8733   19.8948 H   0  0  0  0  0  0  0  0  0  0  0  0
    1.9990  -11.1159   21.1152 H   0  0  0  0  0  0  0  0  0  0  0  0
    0.1733   -7.7991   21.5088 H   0  0  0  0  0  0  0  0  0  0  0  0
    1.7542   -5.8408   20.6766 H   0  0  0  0  0  0  0  0  0  0  0  0
    3.8587   -6.7775   19.3932 H   0  0  0  0  0  0  0  0  0  0  0  0
   -7.2713  -11.8849   23.3883 H   0  0  0  0  0  0  0  0  0  0  0  0
   -9.2236  -12.7509   24.6948 H   0  0  0  0  0  0  0  0  0  0  0  0
   -9.1319  -12.8237   27.1712 H   0  0  0  0  0  0  0  0  0  0  0  0
   -7.1065  -12.0389   28.3739 H   0  0  0  0  0  0  0  0  0  0  0  0
  1  2  1  0
  2  3  1  0
  2  4  1  0
  4  5  1  0
  5  6  1  0
  6  7  1  0
  7  8  1  0
  8  9  1  0
  9 10  2  0
  9 11  1  0
 11 12  1  0
 12 13  2  0
 13 14  1  0
 14 15  2  0
 15 16  1  0
  5 17  2  0
 17 18  1  0
 18 19  2  0
 19 20  1  0
 20 21  2  0
 21 22  1  0
 22 23  2  0
 23  4  1  0
 16 12  1  0
 23 18  1  0
  1 24  1  0
  1 25  1  0
  1 26  1  0
  2 27  1  0
  3 28  1  0
  3 29  1  0
  3 30  1  0
  6 31  1  0
  6 32  1  0
  7 33  1  0
  7 34  1  0
  8 35  1  0
 11 36  1  0
 11 37  1  0
 13 38  1  0
 14 39  1  0
 15 40  1  0
 19 41  1  0
 20 42  1  0
 21 43  1  0
 22 44  1  0
M  END
>  <Energy>  (195) 
478.0253188152268

>  <compound_id>  (195) 
4849

>  <target_id>  (195) 
1

>  <reference_id>  (195) 
94

>  <inspiration_ids>  (195) 
[94, 66]

>  <energy_score>  (195) 
406.82631651747397

>  <distance_score>  (195) 
15.164353020436735

>  <path>  (195) 
/opt/xchem-fragalysis-2/maxwin/BulkDock/SCRATCH/511016/C4849-P94/C4849-P94.minimised.mol

>  <scratch_subdir>  (195) 
/opt/xchem-fragalysis-2/maxwin/BulkDock/SCRATCH/511016/C4849-P94

>  <fragmenstein_runtime>  (195) 
30.683687925338745

>  <fragmenstein_outcome>  (195) 
too moved

>  <fragmenstein_mode>  (195) 
expansion

>  <fragmenstein_error>  (195) 


$$$$
C4849-P66
     RDKit          3D

 44 46  0  0  0  0  0  0  0  0999 V2000
   -7.1238  -14.1861   29.6335 C   0  0  0  0  0  0  0  0  0  0  0  0
   -7.7802  -15.2700   30.4299 C   0  0  0  0  0  0  0  0  0  0  0  0
   -8.9201  -14.4987   31.1450 C   0  0  0  0  0  0  0  0  0  0  0  0
   -6.8873  -16.1406   31.2048 N   0  0  0  0  0  0  0  0  0  0  0  0
   -5.6675  -16.8009   30.8019 C   0  0  0  0  0  0  0  0  0  0  0  0
   -4.2310  -16.1337   29.8394 C   0  0  0  0  0  0  0  0  0  0  0  0
   -3.2764  -16.1851   28.0647 C   0  0  0  0  0  0  0  0  0  0  0  0
   -2.1328  -15.2068   26.9691 N   0  0  0  0  0  0  0  0  0  0  0  0
   -2.0970  -14.9696   25.1208 C   0  0  0  0  0  0  0  0  0  0  0  0
   -2.9677  -15.4251   24.4215 O   0  0  0  0  0  0  0  0  0  0  0  0
   -0.6392  -14.1305   23.9417 C   0  0  0  0  0  0  0  0  0  0  0  0
   -0.3056  -12.5619   22.6360 C   0  0  0  0  0  0  0  0  0  0  0  0
    0.6867  -11.3912   22.5031 C   0  0  0  0  0  0  0  0  0  0  0  0
    0.5146  -10.2466   21.3883 C   0  0  0  0  0  0  0  0  0  0  0  0
   -0.7058  -10.1811   20.8191 C   0  0  0  0  0  0  0  0  0  0  0  0
   -1.6656  -11.5638   21.0710 S   0  0  0  0  0  0  0  0  0  0  0  0
   -5.3443  -17.6390   31.7781 N   0  0  0  0  0  0  0  0  0  0  0  0
   -6.1676  -17.4751   32.8213 C   0  0  0  0  0  0  0  0  0  0  0  0
   -6.0703  -18.0706   34.0771 C   0  0  0  0  0  0  0  0  0  0  0  0
   -6.9887  -17.7289   35.0653 C   0  0  0  0  0  0  0  0  0  0  0  0
   -7.9726  -16.7916   34.8045 C   0  0  0  0  0  0  0  0  0  0  0  0
   -8.0442  -16.1582   33.5627 C   0  0  0  0  0  0  0  0  0  0  0  0
   -7.1285  -16.5243   32.5463 C   0  0  0  0  0  0  0  0  0  0  0  0
   -6.4046  -13.5900   30.1907 H   0  0  0  0  0  0  0  0  0  0  0  0
   -7.8343  -13.4915   29.1694 H   0  0  0  0  0  0  0  0  0  0  0  0
   -6.6480  -14.6737   28.8090 H   0  0  0  0  0  0  0  0  0  0  0  0
   -8.1887  -15.9293   29.6584 H   0  0  0  0  0  0  0  0  0  0  0  0
   -9.5228  -13.9375   30.4189 H   0  0  0  0  0  0  0  0  0  0  0  0
   -8.5219  -13.7687   31.8583 H   0  0  0  0  0  0  0  0  0  0  0  0
   -9.6426  -15.1260   31.6626 H   0  0  0  0  0  0  0  0  0  0  0  0
   -5.1600  -16.3548   29.2809 H   0  0  0  0  0  0  0  0  0  0  0  0
   -3.5590  -16.5462   30.5831 H   0  0  0  0  0  0  0  0  0  0  0  0
   -2.7847  -15.3233   28.5789 H   0  0  0  0  0  0  0  0  0  0  0  0
   -2.8855  -17.1518   27.7848 H   0  0  0  0  0  0  0  0  0  0  0  0
   -1.2963  -14.8402   27.3598 H   0  0  0  0  0  0  0  0  0  0  0  0
    0.3782  -14.2782   24.2860 H   0  0  0  0  0  0  0  0  0  0  0  0
   -0.8888  -14.7219   23.0509 H   0  0  0  0  0  0  0  0  0  0  0  0
    1.6943  -11.6381   22.8945 H   0  0  0  0  0  0  0  0  0  0  0  0
    1.3231   -9.5594   21.1584 H   0  0  0  0  0  0  0  0  0  0  0  0
   -1.0552   -9.4397   20.1146 H   0  0  0  0  0  0  0  0  0  0  0  0
   -5.2592  -18.7636   34.2560 H   0  0  0  0  0  0  0  0  0  0  0  0
   -6.9194  -18.1821   36.0495 H   0  0  0  0  0  0  0  0  0  0  0  0
   -8.6803  -16.5211   35.5841 H   0  0  0  0  0  0  0  0  0  0  0  0
   -8.8045  -15.4009   33.4446 H   0  0  0  0  0  0  0  0  0  0  0  0
  1  2  1  0
  2  3  1  0
  2  4  1  0
  4  5  1  0
  5  6  1  0
  6  7  1  0
  7  8  1  0
  8  9  1  0
  9 10  2  0
  9 11  1  0
 11 12  1  0
 12 13  2  0
 13 14  1  0
 14 15  2  0
 15 16  1  0
  5 17  2  0
 17 18  1  0
 18 19  2  0
 19 20  1  0
 20 21  2  0
 21 22  1  0
 22 23  2  0
 23  4  1  0
 16 12  1  0
 23 18  1  0
  1 24  1  0
  1 25  1  0
  1 26  1  0
  2 27  1  0
  3 28  1  0
  3 29  1  0
  3 30  1  0
  6 31  1  0
  6 32  1  0
  7 33  1  0
  7 34  1  0
  8 35  1  0
 11 36  1  0
 11 37  1  0
 13 38  1  0
 14 39  1  0
 15 40  1  0
 19 41  1  0
 20 42  1  0
 21 43  1  0
 22 44  1  0
M  END
>  <Energy>  (196) 
690.98368883498392

>  <compound_id>  (196) 
4849

>  <target_id>  (196) 
1

>  <reference_id>  (196) 
66

>  <inspiration_ids>  (196) 
[94, 66]

>  <energy_score>  (196) 
619.7846865372112

>  <distance_score>  (196) 
14.524802324218859

>  <path>  (196) 
/opt/xchem-fragalysis-2/maxwin/BulkDock/SCRATCH/511016/C4849-P66/C4849-P66.minimised.mol

>  <scratch_subdir>  (196) 
/opt/xchem-fragalysis-2/maxwin/BulkDock/SCRATCH/511016/C4849-P66

>  <fragmenstein_runtime>  (196) 
30.347965478897095

>  <fragmenstein_outcome>  (196) 
too moved

>  <fragmenstein_mode>  (196) 
expansion

>  <fragmenstein_error>  (196) 


$$$$
C4850-P94
     RDKit          3D

 46 48  0  0  0  0  0  0  0  0999 V2000
   -0.3346  -14.1002   31.6543 C   0  0  0  0  0  0  0  0  0  0  0  0
   -0.6932  -15.2548   30.4448 C   0  0  0  0  0  0  0  0  0  0  0  0
    0.6015  -16.4038   30.2610 C   0  0  0  0  0  0  0  0  0  0  0  0
   -2.2892  -15.0097   29.2078 C   0  0  0  0  0  0  0  0  0  0  0  0
   -0.9386  -14.6598   27.7692 N   0  0  0  0  0  0  0  0  0  0  0  0
   -1.0059  -13.7499   25.9798 C   0  0  0  0  0  0  0  0  0  0  0  0
   -1.9294  -13.3196   25.3591 O   0  0  0  0  0  0  0  0  0  0  0  0
    0.8976  -13.6296   25.6706 N   0  0  0  0  0  0  0  0  0  0  0  0
    1.8859  -12.6604   24.3442 C   0  0  0  0  0  0  0  0  0  0  0  0
    3.1436  -12.5658   23.1892 C   0  0  0  0  0  0  0  0  0  0  0  0
    3.7615  -11.5866   21.7708 C   0  0  0  0  0  0  0  0  0  0  0  0
    4.0352  -12.0574   20.4766 C   0  0  0  0  0  0  0  0  0  0  0  0
    4.6558  -11.1089   19.5972 C   0  0  0  0  0  0  0  0  0  0  0  0
    4.8827   -9.9085   20.2170 C   0  0  0  0  0  0  0  0  0  0  0  0
    4.3665   -9.9353   21.8389 S   0  0  0  0  0  0  0  0  0  0  0  0
   -2.8636  -15.9845   30.9449 C   0  0  0  0  0  0  0  0  0  0  0  0
   -3.0847  -15.7728   32.5936 N   0  0  0  0  0  0  0  0  0  0  0  0
   -4.8073  -16.1169   33.0308 C   0  0  0  0  0  0  0  0  0  0  0  0
   -6.2048  -15.8518   33.8768 C   0  0  0  0  0  0  0  0  0  0  0  0
   -7.3102  -16.6625   34.0217 C   0  0  0  0  0  0  0  0  0  0  0  0
   -7.1617  -17.8797   33.4657 C   0  0  0  0  0  0  0  0  0  0  0  0
   -6.0435  -18.1715   32.6620 C   0  0  0  0  0  0  0  0  0  0  0  0
   -4.8444  -17.2580   32.5009 C   0  0  0  0  0  0  0  0  0  0  0  0
   -3.0928  -17.1580   32.1041 N   0  0  0  0  0  0  0  0  0  0  0  0
   -0.4951  -13.0646   31.4164 H   0  0  0  0  0  0  0  0  0  0  0  0
    0.6878  -14.1266   32.0229 H   0  0  0  0  0  0  0  0  0  0  0  0
   -0.9640  -14.2523   32.5360 H   0  0  0  0  0  0  0  0  0  0  0  0
   -1.0115  -15.7697   31.3271 H   0  0  0  0  0  0  0  0  0  0  0  0
    0.9949  -16.3815   29.2413 H   0  0  0  0  0  0  0  0  0  0  0  0
    0.4262  -17.4356   30.5831 H   0  0  0  0  0  0  0  0  0  0  0  0
    1.4205  -16.2937   30.9574 H   0  0  0  0  0  0  0  0  0  0  0  0
   -2.8516  -15.6224   28.4669 H   0  0  0  0  0  0  0  0  0  0  0  0
   -0.1138  -14.9549   27.9798 H   0  0  0  0  0  0  0  0  0  0  0  0
    1.4229  -14.0271   26.4210 H   0  0  0  0  0  0  0  0  0  0  0  0
    1.8705  -11.8316   24.9888 H   0  0  0  0  0  0  0  0  0  0  0  0
    1.3241  -11.9720   23.6996 H   0  0  0  0  0  0  0  0  0  0  0  0
    2.4379  -11.9466   22.6184 H   0  0  0  0  0  0  0  0  0  0  0  0
    3.1100  -13.6092   22.9449 H   0  0  0  0  0  0  0  0  0  0  0  0
    3.8103  -13.0744   20.1818 H   0  0  0  0  0  0  0  0  0  0  0  0
    4.9255  -11.3171   18.5693 H   0  0  0  0  0  0  0  0  0  0  0  0
    5.3347   -9.0202   19.7998 H   0  0  0  0  0  0  0  0  0  0  0  0
   -6.1756  -14.9902   34.5676 H   0  0  0  0  0  0  0  0  0  0  0  0
   -8.1403  -16.4085   34.6664 H   0  0  0  0  0  0  0  0  0  0  0  0
   -7.8687  -18.6693   33.6941 H   0  0  0  0  0  0  0  0  0  0  0  0
   -5.8512  -19.2477   32.5142 H   0  0  0  0  0  0  0  0  0  0  0  0
   -2.4774  -17.9549   32.0815 H   0  0  0  0  0  0  0  0  0  0  0  0
  1  2  1  0
  2  3  1  0
  2  4  1  0
  4  5  1  0
  5  6  1  0
  6  7  2  0
  6  8  1  0
  8  9  1  0
  9 10  1  0
 10 11  1  0
 11 12  2  0
 12 13  1  0
 13 14  2  0
 14 15  1  0
  4 16  1  0
 16 17  2  0
 17 18  1  0
 18 19  2  0
 19 20  1  0
 20 21  2  0
 21 22  1  0
 22 23  2  0
 23 24  1  0
 15 11  1  0
 24 16  1  0
 23 18  1  0
  1 25  1  0
  1 26  1  0
  1 27  1  0
  2 28  1  0
  3 29  1  0
  3 30  1  0
  3 31  1  0
  4 32  1  0
  5 33  1  0
  8 34  1  0
  9 35  1  0
  9 36  1  0
 10 37  1  0
 10 38  1  0
 12 39  1  0
 13 40  1  0
 14 41  1  0
 19 42  1  0
 20 43  1  0
 21 44  1  0
 22 45  1  0
 24 46  1  0
M  END
>  <Energy>  (197) 
1121.8735717209217

>  <compound_id>  (197) 
4850

>  <target_id>  (197) 
1

>  <reference_id>  (197) 
94

>  <inspiration_ids>  (197) 
[94, 66]

>  <energy_score>  (197) 
1129.26940207122

>  <distance_score>  (197) 
13.081720207796618

>  <path>  (197) 
/opt/xchem-fragalysis-2/maxwin/BulkDock/SCRATCH/511016/C4850-P94/C4850-P94.minimised.mol

>  <scratch_subdir>  (197) 
/opt/xchem-fragalysis-2/maxwin/BulkDock/SCRATCH/511016/C4850-P94

>  <fragmenstein_runtime>  (197) 
27.042430639266968

>  <fragmenstein_outcome>  (197) 
too moved

>  <fragmenstein_mode>  (197) 
expansion

>  <fragmenstein_error>  (197) 


$$$$
C4850-P66
     RDKit          3D

 46 48  0  0  0  0  0  0  0  0999 V2000
    0.7988  -16.4120   30.9432 C   0  0  0  0  0  0  0  0  0  0  0  0
   -0.0755  -15.1167   31.2251 C   0  0  0  0  0  0  0  0  0  0  0  0
    0.4834  -13.6885   32.1427 C   0  0  0  0  0  0  0  0  0  0  0  0
   -0.4647  -15.3667   29.6661 C   0  0  0  0  0  0  0  0  0  0  0  0
    1.3252  -15.5253   28.6262 N   0  0  0  0  0  0  0  0  0  0  0  0
    2.1603  -14.3166   27.2992 C   0  0  0  0  0  0  0  0  0  0  0  0
    1.5903  -13.3653   26.8879 O   0  0  0  0  0  0  0  0  0  0  0  0
    3.7240  -14.6434   26.9301 N   0  0  0  0  0  0  0  0  0  0  0  0
    4.8619  -13.8095   25.8883 C   0  0  0  0  0  0  0  0  0  0  0  0
    6.4930  -12.8500   26.0229 C   0  0  0  0  0  0  0  0  0  0  0  0
    7.2641  -12.0445   24.8881 C   0  0  0  0  0  0  0  0  0  0  0  0
    7.3725  -10.6682   24.6659 C   0  0  0  0  0  0  0  0  0  0  0  0
    8.1943  -10.3037   23.5503 C   0  0  0  0  0  0  0  0  0  0  0  0
    8.8298  -11.3989   23.0229 C   0  0  0  0  0  0  0  0  0  0  0  0
    8.4957  -12.8173   23.9278 S   0  0  0  0  0  0  0  0  0  0  0  0
   -1.7105  -15.4911   31.3569 C   0  0  0  0  0  0  0  0  0  0  0  0
   -2.8539  -16.3079   31.6466 N   0  0  0  0  0  0  0  0  0  0  0  0
   -3.8193  -16.1415   32.8399 C   0  0  0  0  0  0  0  0  0  0  0  0
   -5.5385  -16.4278   32.9533 C   0  0  0  0  0  0  0  0  0  0  0  0
   -6.6173  -15.8127   33.9290 C   0  0  0  0  0  0  0  0  0  0  0  0
   -6.0956  -14.7370   34.8399 C   0  0  0  0  0  0  0  0  0  0  0  0
   -4.4573  -14.3522   34.7291 C   0  0  0  0  0  0  0  0  0  0  0  0
   -3.3164  -14.9779   33.5896 C   0  0  0  0  0  0  0  0  0  0  0  0
   -1.9585  -14.7526   32.9052 N   0  0  0  0  0  0  0  0  0  0  0  0
    0.9097  -16.9162   30.0027 H   0  0  0  0  0  0  0  0  0  0  0  0
    0.2938  -17.2880   31.2797 H   0  0  0  0  0  0  0  0  0  0  0  0
    1.8268  -16.3014   31.1576 H   0  0  0  0  0  0  0  0  0  0  0  0
   -0.4654  -14.2300   30.7473 H   0  0  0  0  0  0  0  0  0  0  0  0
   -0.0373  -12.8938   31.6337 H   0  0  0  0  0  0  0  0  0  0  0  0
    1.5635  -13.6302   32.2996 H   0  0  0  0  0  0  0  0  0  0  0  0
    0.0961  -13.2615   33.0799 H   0  0  0  0  0  0  0  0  0  0  0  0
   -1.2224  -14.9862   28.9766 H   0  0  0  0  0  0  0  0  0  0  0  0
    1.9099  -16.3102   28.7724 H   0  0  0  0  0  0  0  0  0  0  0  0
    4.0123  -15.4538   27.4611 H   0  0  0  0  0  0  0  0  0  0  0  0
    4.9279  -13.3719   26.9048 H   0  0  0  0  0  0  0  0  0  0  0  0
    5.1778  -14.7121   25.3405 H   0  0  0  0  0  0  0  0  0  0  0  0
    6.3319  -12.1001   26.8155 H   0  0  0  0  0  0  0  0  0  0  0  0
    7.2490  -13.5447   26.4072 H   0  0  0  0  0  0  0  0  0  0  0  0
    6.8883   -9.9239   25.2804 H   0  0  0  0  0  0  0  0  0  0  0  0
    8.3424   -9.2921   23.1945 H   0  0  0  0  0  0  0  0  0  0  0  0
    9.5282  -11.4345   22.1982 H   0  0  0  0  0  0  0  0  0  0  0  0
   -5.9810  -17.1162   32.2435 H   0  0  0  0  0  0  0  0  0  0  0  0
   -7.6504  -16.1344   33.9028 H   0  0  0  0  0  0  0  0  0  0  0  0
   -6.7113  -14.2224   35.5690 H   0  0  0  0  0  0  0  0  0  0  0  0
   -4.2346  -13.5294   35.3759 H   0  0  0  0  0  0  0  0  0  0  0  0
   -1.5329  -13.8683   33.0590 H   0  0  0  0  0  0  0  0  0  0  0  0
  1  2  1  0
  2  3  1  0
  2  4  1  0
  4  5  1  0
  5  6  1  0
  6  7  2  0
  6  8  1  0
  8  9  1  0
  9 10  1  0
 10 11  1  0
 11 12  2  0
 12 13  1  0
 13 14  2  0
 14 15  1  0
  4 16  1  0
 16 17  2  0
 17 18  1  0
 18 19  2  0
 19 20  1  0
 20 21  2  0
 21 22  1  0
 22 23  2  0
 23 24  1  0
 15 11  1  0
 24 16  1  0
 23 18  1  0
  1 25  1  0
  1 26  1  0
  1 27  1  0
  2 28  1  0
  3 29  1  0
  3 30  1  0
  3 31  1  0
  4 32  1  0
  5 33  1  0
  8 34  1  0
  9 35  1  0
  9 36  1  0
 10 37  1  0
 10 38  1  0
 12 39  1  0
 13 40  1  0
 14 41  1  0
 19 42  1  0
 20 43  1  0
 21 44  1  0
 22 45  1  0
 24 46  1  0
M  END
>  <Energy>  (198) 
987.4421443715122

>  <compound_id>  (198) 
4850

>  <target_id>  (198) 
1

>  <reference_id>  (198) 
66

>  <inspiration_ids>  (198) 
[94, 66]

>  <energy_score>  (198) 
994.8379747217912

>  <distance_score>  (198) 
13.689091305923954

>  <path>  (198) 
/opt/xchem-fragalysis-2/maxwin/BulkDock/SCRATCH/511016/C4850-P66/C4850-P66.minimised.mol

>  <scratch_subdir>  (198) 
/opt/xchem-fragalysis-2/maxwin/BulkDock/SCRATCH/511016/C4850-P66

>  <fragmenstein_runtime>  (198) 
37.183104276657104

>  <fragmenstein_outcome>  (198) 
too moved

>  <fragmenstein_mode>  (198) 
expansion

>  <fragmenstein_error>  (198) 


$$$$
C4851-P94
     RDKit          3D

 37 39  0  0  0  0  0  0  0  0999 V2000
    5.0210  -14.2770   18.7160 C   0  0  0  0  0  0  0  0  0  0  0  0
    4.3021  -12.8963   18.7177 C   0  0  0  0  0  0  0  0  0  0  0  0
    6.0187  -11.5693   18.4422 N   0  0  0  0  0  0  0  0  0  0  0  0
    8.1156  -10.6836   17.3764 S   0  0  0  0  0  0  0  0  0  0  0  0
    8.7992  -10.2687   18.6114 O   0  0  0  0  0  0  0  0  0  0  0  0
    8.8331  -11.7698   16.6976 O   0  0  0  0  0  0  0  0  0  0  0  0
    9.3200   -9.3490   15.7591 C   0  0  0  0  0  0  0  0  0  0  0  0
    9.8452   -7.7614   15.4055 C   0  0  0  0  0  0  0  0  0  0  0  0
   11.4279   -6.7864   15.8641 C   0  0  0  0  0  0  0  0  0  0  0  0
   10.7888   -6.0848   15.0225 C   0  0  0  0  0  0  0  0  0  0  0  0
    8.7486   -7.2059   14.8198 S   0  0  0  0  0  0  0  0  0  0  0  0
    2.8722  -14.4271   18.9604 C   0  0  0  0  0  0  0  0  0  0  0  0
    2.4568  -14.4007   20.0729 O   0  0  0  0  0  0  0  0  0  0  0  0
    2.2808  -15.8307   17.9425 N   0  0  0  0  0  0  0  0  0  0  0  0
    1.1855  -17.4165   18.3756 C   0  0  0  0  0  0  0  0  0  0  0  0
    1.0677  -18.6103   17.5840 C   0  0  0  0  0  0  0  0  0  0  0  0
    0.1750  -19.7192   17.9474 C   0  0  0  0  0  0  0  0  0  0  0  0
   -0.6583  -19.7647   19.1079 C   0  0  0  0  0  0  0  0  0  0  0  0
   -1.5137  -20.7342   19.6203 N   0  0  0  0  0  0  0  0  0  0  0  0
   -1.9435  -20.2570   20.7724 C   0  0  0  0  0  0  0  0  0  0  0  0
   -1.4400  -19.0085   21.0057 N   0  0  0  0  0  0  0  0  0  0  0  0
   -0.6516  -18.6611   19.9325 C   0  0  0  0  0  0  0  0  0  0  0  0
    0.1324  -17.5247   19.6285 C   0  0  0  0  0  0  0  0  0  0  0  0
    5.9017  -13.9878   19.2209 H   0  0  0  0  0  0  0  0  0  0  0  0
    4.9684  -15.3696   18.8775 H   0  0  0  0  0  0  0  0  0  0  0  0
    4.6660  -14.6188   17.7469 H   0  0  0  0  0  0  0  0  0  0  0  0
    4.3820  -12.6733   19.8055 H   0  0  0  0  0  0  0  0  0  0  0  0
    6.1596  -11.1883   19.3877 H   0  0  0  0  0  0  0  0  0  0  0  0
    9.8612   -7.2203   16.2436 H   0  0  0  0  0  0  0  0  0  0  0  0
   12.3703   -6.9488   16.3220 H   0  0  0  0  0  0  0  0  0  0  0  0
   10.6705   -5.0036   14.6773 H   0  0  0  0  0  0  0  0  0  0  0  0
    2.6241  -15.6985   17.0101 H   0  0  0  0  0  0  0  0  0  0  0  0
    1.6483  -18.7146   16.6709 H   0  0  0  0  0  0  0  0  0  0  0  0
    0.1621  -20.5916   17.2967 H   0  0  0  0  0  0  0  0  0  0  0  0
   -2.5947  -20.7626   21.4709 H   0  0  0  0  0  0  0  0  0  0  0  0
   -1.5544  -18.4475   21.8406 H   0  0  0  0  0  0  0  0  0  0  0  0
    0.1200  -16.7079   20.3474 H   0  0  0  0  0  0  0  0  0  0  0  0
  1  2  1  0
  2  3  1  0
  3  4  1  0
  4  5  2  0
  4  6  2  0
  4  7  1  0
  7  8  2  0
  8  9  1  0
  9 10  2  0
 10 11  1  0
  2 12  1  0
 12 13  2  0
 12 14  1  0
 14 15  1  0
 15 16  2  0
 16 17  1  0
 17 18  2  0
 18 19  1  0
 19 20  2  0
 20 21  1  0
 21 22  1  0
 22 23  2  0
 11  7  1  0
 23 15  1  0
 22 18  1  0
  1 24  1  0
  1 25  1  0
  1 26  1  0
  2 27  1  0
  3 28  1  0
  8 29  1  0
  9 30  1  0
 10 31  1  0
 14 32  1  0
 16 33  1  0
 17 34  1  0
 20 35  1  0
 21 36  1  0
 23 37  1  0
M  END
>  <Energy>  (199) 
1514.7514971645824

>  <compound_id>  (199) 
4851

>  <target_id>  (199) 
1

>  <reference_id>  (199) 
94

>  <inspiration_ids>  (199) 
[94, 66]

>  <energy_score>  (199) 
1471.4559742196116

>  <distance_score>  (199) 
13.551101256578123

>  <path>  (199) 
/opt/xchem-fragalysis-2/maxwin/BulkDock/SCRATCH/511016/C4851-P94/C4851-P94.minimised.mol

>  <scratch_subdir>  (199) 
/opt/xchem-fragalysis-2/maxwin/BulkDock/SCRATCH/511016/C4851-P94

>  <fragmenstein_runtime>  (199) 
18.114412307739258

>  <fragmenstein_outcome>  (199) 
too moved

>  <fragmenstein_mode>  (199) 
expansion

>  <fragmenstein_error>  (199) 


$$$$
C4851-P66
     RDKit          3D

 37 39  0  0  0  0  0  0  0  0999 V2000
    5.3948  -12.4005   19.8512 C   0  0  0  0  0  0  0  0  0  0  0  0
    5.7470  -11.2637   20.7421 C   0  0  0  0  0  0  0  0  0  0  0  0
    7.0228   -9.9681   19.6611 N   0  0  0  0  0  0  0  0  0  0  0  0
    7.6553   -7.5996   19.5265 S   0  0  0  0  0  0  0  0  0  0  0  0
    6.9098   -7.0956   20.6557 O   0  0  0  0  0  0  0  0  0  0  0  0
    9.2230   -8.3739   19.7224 O   0  0  0  0  0  0  0  0  0  0  0  0
    9.6431   -6.0296   18.8069 C   0  0  0  0  0  0  0  0  0  0  0  0
   10.9603   -5.1785   17.6791 C   0  0  0  0  0  0  0  0  0  0  0  0
   12.2084   -4.0673   17.4197 C   0  0  0  0  0  0  0  0  0  0  0  0
   11.3906   -3.7880   16.4152 C   0  0  0  0  0  0  0  0  0  0  0  0
   10.9517   -5.4604   16.7622 S   0  0  0  0  0  0  0  0  0  0  0  0
    4.4497  -11.2190   22.3308 C   0  0  0  0  0  0  0  0  0  0  0  0
    4.7071  -10.2529   23.0277 O   0  0  0  0  0  0  0  0  0  0  0  0
    3.1648  -12.5990   22.6887 N   0  0  0  0  0  0  0  0  0  0  0  0
    1.9607  -12.9581   24.2150 C   0  0  0  0  0  0  0  0  0  0  0  0
    1.5133  -12.9309   25.7891 C   0  0  0  0  0  0  0  0  0  0  0  0
    0.2824  -12.8361   26.8567 C   0  0  0  0  0  0  0  0  0  0  0  0
   -1.0682  -13.1242   26.5148 C   0  0  0  0  0  0  0  0  0  0  0  0
   -2.2018  -13.1893   27.2917 N   0  0  0  0  0  0  0  0  0  0  0  0
   -3.0083  -14.0027   26.6656 C   0  0  0  0  0  0  0  0  0  0  0  0
   -2.4326  -14.5228   25.5401 N   0  0  0  0  0  0  0  0  0  0  0  0
   -1.1736  -13.7966   25.1818 C   0  0  0  0  0  0  0  0  0  0  0  0
    0.4175  -14.0579   24.1431 C   0  0  0  0  0  0  0  0  0  0  0  0
    5.9589  -13.2877   20.0393 H   0  0  0  0  0  0  0  0  0  0  0  0
    4.3789  -12.7481   19.9238 H   0  0  0  0  0  0  0  0  0  0  0  0
    5.6375  -11.9943   18.9021 H   0  0  0  0  0  0  0  0  0  0  0  0
    6.4714  -11.8449   21.2761 H   0  0  0  0  0  0  0  0  0  0  0  0
    7.9131  -10.4118   19.4001 H   0  0  0  0  0  0  0  0  0  0  0  0
   11.8472   -5.2822   18.7479 H   0  0  0  0  0  0  0  0  0  0  0  0
   13.0278   -3.7084   18.0206 H   0  0  0  0  0  0  0  0  0  0  0  0
   11.4710   -3.1858   15.5192 H   0  0  0  0  0  0  0  0  0  0  0  0
    3.0995  -13.2366   21.8937 H   0  0  0  0  0  0  0  0  0  0  0  0
    2.1691  -13.5827   26.4264 H   0  0  0  0  0  0  0  0  0  0  0  0
    0.5530  -12.7549   27.9076 H   0  0  0  0  0  0  0  0  0  0  0  0
   -3.9881  -14.3085   27.0085 H   0  0  0  0  0  0  0  0  0  0  0  0
   -2.8191  -15.2849   25.0063 H   0  0  0  0  0  0  0  0  0  0  0  0
   -0.0223  -14.1486   23.1264 H   0  0  0  0  0  0  0  0  0  0  0  0
  1  2  1  0
  2  3  1  0
  3  4  1  0
  4  5  2  0
  4  6  2  0
  4  7  1  0
  7  8  2  0
  8  9  1  0
  9 10  2  0
 10 11  1  0
  2 12  1  0
 12 13  2  0
 12 14  1  0
 14 15  1  0
 15 16  2  0
 16 17  1  0
 17 18  2  0
 18 19  1  0
 19 20  2  0
 20 21  1  0
 21 22  1  0
 22 23  2  0
 11  7  1  0
 23 15  1  0
 22 18  1  0
  1 24  1  0
  1 25  1  0
  1 26  1  0
  2 27  1  0
  3 28  1  0
  8 29  1  0
  9 30  1  0
 10 31  1  0
 14 32  1  0
 16 33  1  0
 17 34  1  0
 20 35  1  0
 21 36  1  0
 23 37  1  0
M  END
>  <Energy>  (200) 
1899.6422494691046

>  <compound_id>  (200) 
4851

>  <target_id>  (200) 
1

>  <reference_id>  (200) 
66

>  <inspiration_ids>  (200) 
[94, 66]

>  <energy_score>  (200) 
1856.3467265241698

>  <distance_score>  (200) 
12.55988008978721

>  <path>  (200) 
/opt/xchem-fragalysis-2/maxwin/BulkDock/SCRATCH/511016/C4851-P66/C4851-P66.minimised.mol

>  <scratch_subdir>  (200) 
/opt/xchem-fragalysis-2/maxwin/BulkDock/SCRATCH/511016/C4851-P66

>  <fragmenstein_runtime>  (200) 
27.398730754852295

>  <fragmenstein_outcome>  (200) 
too moved

>  <fragmenstein_mode>  (200) 
expansion

>  <fragmenstein_error>  (200) 


$$$$
C4852-P94
     RDKit          3D

 43 45  0  0  0  0  0  0  0  0999 V2000
   -3.7966  -21.0882   20.6201 C   0  0  0  0  0  0  0  0  0  0  0  0
   -3.2669  -19.7503   20.1904 C   0  0  0  0  0  0  0  0  0  0  0  0
   -4.1508  -18.7296   19.8063 C   0  0  0  0  0  0  0  0  0  0  0  0
   -3.6692  -17.4623   19.4135 C   0  0  0  0  0  0  0  0  0  0  0  0
   -2.2766  -17.2167   19.3784 C   0  0  0  0  0  0  0  0  0  0  0  0
   -1.5369  -16.1015   18.9417 N   0  0  0  0  0  0  0  0  0  0  0  0
   -0.2522  -16.4126   19.0510 C   0  0  0  0  0  0  0  0  0  0  0  0
    0.9313  -15.7718   18.6463 N   0  0  0  0  0  0  0  0  0  0  0  0
    1.0765  -14.5044   17.8192 C   0  0  0  0  0  0  0  0  0  0  0  0
    2.6484  -13.9341   17.5624 C   0  0  0  0  0  0  0  0  0  0  0  0
    3.5629  -14.3781   18.7089 C   0  0  0  0  0  0  0  0  0  0  0  0
    3.1474  -14.6069   16.2575 C   0  0  0  0  0  0  0  0  0  0  0  0
    3.0305  -16.0282   16.3227 O   0  0  0  0  0  0  0  0  0  0  0  0
    2.7449  -12.3438   17.3871 C   0  0  0  0  0  0  0  0  0  0  0  0
    4.1269  -11.7203   17.1457 C   0  0  0  0  0  0  0  0  0  0  0  0
    5.1043  -11.3833   18.0695 C   0  0  0  0  0  0  0  0  0  0  0  0
    6.2928  -10.8799   17.4655 C   0  0  0  0  0  0  0  0  0  0  0  0
    6.1576  -10.7447   16.1034 C   0  0  0  0  0  0  0  0  0  0  0  0
    4.6139  -11.2392   15.5659 S   0  0  0  0  0  0  0  0  0  0  0  0
   -0.1764  -17.6528   19.6980 N   0  0  0  0  0  0  0  0  0  0  0  0
   -1.4301  -18.2251   19.8133 C   0  0  0  0  0  0  0  0  0  0  0  0
   -1.8809  -19.4900   20.2462 C   0  0  0  0  0  0  0  0  0  0  0  0
   -3.0707  -21.8805   20.4094 H   0  0  0  0  0  0  0  0  0  0  0  0
   -4.7150  -21.3360   20.0776 H   0  0  0  0  0  0  0  0  0  0  0  0
   -4.0101  -21.0801   21.6934 H   0  0  0  0  0  0  0  0  0  0  0  0
   -5.2234  -18.9109   19.7903 H   0  0  0  0  0  0  0  0  0  0  0  0
   -4.3506  -16.6857   19.0845 H   0  0  0  0  0  0  0  0  0  0  0  0
    1.7539  -16.3639   18.5610 H   0  0  0  0  0  0  0  0  0  0  0  0
    0.4870  -13.6962   18.2548 H   0  0  0  0  0  0  0  0  0  0  0  0
    0.6264  -14.6948   16.8369 H   0  0  0  0  0  0  0  0  0  0  0  0
    4.5898  -14.0248   18.5806 H   0  0  0  0  0  0  0  0  0  0  0  0
    3.6421  -15.4658   18.7358 H   0  0  0  0  0  0  0  0  0  0  0  0
    3.2017  -14.0180   19.6742 H   0  0  0  0  0  0  0  0  0  0  0  0
    2.5840  -14.2542   15.3862 H   0  0  0  0  0  0  0  0  0  0  0  0
    4.2047  -14.3860   16.0806 H   0  0  0  0  0  0  0  0  0  0  0  0
    2.1362  -16.2661   16.0182 H   0  0  0  0  0  0  0  0  0  0  0  0
    2.0725  -12.0554   16.5679 H   0  0  0  0  0  0  0  0  0  0  0  0
    2.3316  -11.8709   18.2839 H   0  0  0  0  0  0  0  0  0  0  0  0
    4.9920  -11.5553   19.1340 H   0  0  0  0  0  0  0  0  0  0  0  0
    7.2001  -10.6397   18.0055 H   0  0  0  0  0  0  0  0  0  0  0  0
    6.8912  -10.3807   15.3956 H   0  0  0  0  0  0  0  0  0  0  0  0
    0.6852  -18.0951   19.9690 H   0  0  0  0  0  0  0  0  0  0  0  0
   -1.1744  -20.2439   20.5807 H   0  0  0  0  0  0  0  0  0  0  0  0
  1  2  1  0
  2  3  2  0
  3  4  1  0
  4  5  2  0
  5  6  1  0
  6  7  2  0
  7  8  1  0
  8  9  1  0
  9 10  1  0
 10 11  1  0
 10 12  1  0
 12 13  1  0
 10 14  1  0
 14 15  1  0
 15 16  2  0
 16 17  1  0
 17 18  2  0
 18 19  1  0
  7 20  1  0
 20 21  1  0
 21 22  2  0
 22  2  1  0
 21  5  1  0
 19 15  1  0
  1 23  1  0
  1 24  1  0
  1 25  1  0
  3 26  1  0
  4 27  1  0
  8 28  1  0
  9 29  1  0
  9 30  1  0
 11 31  1  0
 11 32  1  0
 11 33  1  0
 12 34  1  0
 12 35  1  0
 13 36  1  0
 14 37  1  0
 14 38  1  0
 16 39  1  0
 17 40  1  0
 18 41  1  0
 20 42  1  0
 22 43  1  0
M  END
>  <Energy>  (201) 
21.275089808996697

>  <compound_id>  (201) 
4852

>  <target_id>  (201) 
1

>  <reference_id>  (201) 
94

>  <inspiration_ids>  (201) 
[94, 66]

>  <energy_score>  (201) 
-25.145358337262905

>  <distance_score>  (201) 
15.289931125222953

>  <path>  (201) 
/opt/xchem-fragalysis-2/maxwin/BulkDock/SCRATCH/511016/C4852-P94/C4852-P94.minimised.mol

>  <scratch_subdir>  (201) 
/opt/xchem-fragalysis-2/maxwin/BulkDock/SCRATCH/511016/C4852-P94

>  <fragmenstein_runtime>  (201) 
32.13618230819702

>  <fragmenstein_outcome>  (201) 
too moved

>  <fragmenstein_mode>  (201) 
expansion

>  <fragmenstein_error>  (201) 


$$$$
C4852-P66
     RDKit          3D

 43 45  0  0  0  0  0  0  0  0999 V2000
   -7.4239  -16.3068   29.8691 C   0  0  0  0  0  0  0  0  0  0  0  0
   -6.2205  -17.0883   29.4842 C   0  0  0  0  0  0  0  0  0  0  0  0
   -6.2746  -18.2039   28.6296 C   0  0  0  0  0  0  0  0  0  0  0  0
   -5.0911  -18.4161   27.7391 C   0  0  0  0  0  0  0  0  0  0  0  0
   -3.6112  -17.3211   27.4823 C   0  0  0  0  0  0  0  0  0  0  0  0
   -2.6976  -16.7632   26.0767 N   0  0  0  0  0  0  0  0  0  0  0  0
   -2.2604  -15.1714   25.9534 C   0  0  0  0  0  0  0  0  0  0  0  0
   -1.1558  -14.5471   24.6731 N   0  0  0  0  0  0  0  0  0  0  0  0
    0.7224  -14.2179   24.0945 C   0  0  0  0  0  0  0  0  0  0  0  0
    2.7104  -13.6257   23.6697 C   0  0  0  0  0  0  0  0  0  0  0  0
    3.6114  -14.3926   22.5035 C   0  0  0  0  0  0  0  0  0  0  0  0
    4.0776  -13.9756   24.7144 C   0  0  0  0  0  0  0  0  0  0  0  0
    4.9670  -15.0816   24.4328 O   0  0  0  0  0  0  0  0  0  0  0  0
    3.0825  -12.0980   22.9046 C   0  0  0  0  0  0  0  0  0  0  0  0
    4.3541  -11.4680   22.1605 C   0  0  0  0  0  0  0  0  0  0  0  0
    4.2628  -10.3494   21.3151 C   0  0  0  0  0  0  0  0  0  0  0  0
    5.5003   -9.8938   20.7668 C   0  0  0  0  0  0  0  0  0  0  0  0
    6.5454  -10.6665   21.2028 C   0  0  0  0  0  0  0  0  0  0  0  0
    6.0219  -11.9050   22.2636 S   0  0  0  0  0  0  0  0  0  0  0  0
   -2.2845  -15.3811   27.6990 N   0  0  0  0  0  0  0  0  0  0  0  0
   -3.6137  -16.2779   28.3673 C   0  0  0  0  0  0  0  0  0  0  0  0
   -4.9789  -16.3056   29.5993 C   0  0  0  0  0  0  0  0  0  0  0  0
   -7.5739  -16.3804   30.9441 H   0  0  0  0  0  0  0  0  0  0  0  0
   -7.3164  -15.2402   29.6318 H   0  0  0  0  0  0  0  0  0  0  0  0
   -8.2425  -16.6232   29.2226 H   0  0  0  0  0  0  0  0  0  0  0  0
   -7.1677  -18.7824   28.4734 H   0  0  0  0  0  0  0  0  0  0  0  0
   -5.1364  -19.3931   27.2195 H   0  0  0  0  0  0  0  0  0  0  0  0
   -1.4386  -15.2083   23.9346 H   0  0  0  0  0  0  0  0  0  0  0  0
    0.8792  -13.7447   25.1033 H   0  0  0  0  0  0  0  0  0  0  0  0
    0.1255  -13.9784   23.2075 H   0  0  0  0  0  0  0  0  0  0  0  0
    3.3252  -14.3083   21.4507 H   0  0  0  0  0  0  0  0  0  0  0  0
    4.6258  -14.0021   22.4391 H   0  0  0  0  0  0  0  0  0  0  0  0
    3.8208  -15.4044   22.7991 H   0  0  0  0  0  0  0  0  0  0  0  0
    3.8192  -14.1358   25.7546 H   0  0  0  0  0  0  0  0  0  0  0  0
    4.7680  -13.1407   24.6111 H   0  0  0  0  0  0  0  0  0  0  0  0
    5.8744  -14.7714   24.6050 H   0  0  0  0  0  0  0  0  0  0  0  0
    2.7579  -11.6039   23.7496 H   0  0  0  0  0  0  0  0  0  0  0  0
    2.3238  -11.7317   22.2167 H   0  0  0  0  0  0  0  0  0  0  0  0
    3.3090   -9.8770   21.1037 H   0  0  0  0  0  0  0  0  0  0  0  0
    5.6049   -9.0559   20.0905 H   0  0  0  0  0  0  0  0  0  0  0  0
    7.5939  -10.5733   20.9553 H   0  0  0  0  0  0  0  0  0  0  0  0
   -1.8800  -14.6752   28.2855 H   0  0  0  0  0  0  0  0  0  0  0  0
   -5.2910  -15.3880   30.0948 H   0  0  0  0  0  0  0  0  0  0  0  0
  1  2  1  0
  2  3  2  0
  3  4  1  0
  4  5  2  0
  5  6  1  0
  6  7  2  0
  7  8  1  0
  8  9  1  0
  9 10  1  0
 10 11  1  0
 10 12  1  0
 12 13  1  0
 10 14  1  0
 14 15  1  0
 15 16  2  0
 16 17  1  0
 17 18  2  0
 18 19  1  0
  7 20  1  0
 20 21  1  0
 21 22  2  0
 22  2  1  0
 21  5  1  0
 19 15  1  0
  1 23  1  0
  1 24  1  0
  1 25  1  0
  3 26  1  0
  4 27  1  0
  8 28  1  0
  9 29  1  0
  9 30  1  0
 11 31  1  0
 11 32  1  0
 11 33  1  0
 12 34  1  0
 12 35  1  0
 13 36  1  0
 14 37  1  0
 14 38  1  0
 16 39  1  0
 17 40  1  0
 18 41  1  0
 20 42  1  0
 22 43  1  0
M  END
>  <Energy>  (202) 
845.1839424385264

>  <compound_id>  (202) 
4852

>  <target_id>  (202) 
1

>  <reference_id>  (202) 
66

>  <inspiration_ids>  (202) 
[94, 66]

>  <energy_score>  (202) 
798.7634942922573

>  <distance_score>  (202) 
13.32458181195253

>  <path>  (202) 
/opt/xchem-fragalysis-2/maxwin/BulkDock/SCRATCH/511016/C4852-P66/C4852-P66.minimised.mol

>  <scratch_subdir>  (202) 
/opt/xchem-fragalysis-2/maxwin/BulkDock/SCRATCH/511016/C4852-P66

>  <fragmenstein_runtime>  (202) 
26.786985874176025

>  <fragmenstein_outcome>  (202) 
too moved

>  <fragmenstein_mode>  (202) 
expansion

>  <fragmenstein_error>  (202) 


$$$$
C4853-P94
     RDKit          3D

 36 38  0  0  0  0  0  0  0  0999 V2000
   -0.1108   -7.2184   22.3156 C   0  0  0  0  0  0  0  0  0  0  0  0
   -1.0288   -7.0959   21.0891 C   0  0  0  0  0  0  0  0  0  0  0  0
   -1.8530   -5.7975   21.2323 C   0  0  0  0  0  0  0  0  0  0  0  0
   -1.9629   -8.3912   21.0974 N   0  0  0  0  0  0  0  0  0  0  0  0
   -3.1998   -8.3927   22.0152 C   0  0  0  0  0  0  0  0  0  0  0  0
   -3.9994   -9.7592   22.4807 C   0  0  0  0  0  0  0  0  0  0  0  0
   -4.0183  -10.2907   23.7138 N   0  0  0  0  0  0  0  0  0  0  0  0
   -4.9126  -11.3783   23.7254 C   0  0  0  0  0  0  0  0  0  0  0  0
   -5.2475  -12.3241   24.7305 C   0  0  0  0  0  0  0  0  0  0  0  0
   -6.1555  -13.3616   24.4538 C   0  0  0  0  0  0  0  0  0  0  0  0
   -6.7326  -13.4610   23.1915 C   0  0  0  0  0  0  0  0  0  0  0  0
   -6.4106  -12.5384   22.1775 C   0  0  0  0  0  0  0  0  0  0  0  0
   -5.4866  -11.5126   22.4718 C   0  0  0  0  0  0  0  0  0  0  0  0
   -4.9150  -10.4864   21.7159 N   0  0  0  0  0  0  0  0  0  0  0  0
   -0.0915   -6.8706   19.8195 C   0  0  0  0  0  0  0  0  0  0  0  0
    0.0366   -7.5554   18.6226 C   0  0  0  0  0  0  0  0  0  0  0  0
    1.0616   -7.0485   17.7520 C   0  0  0  0  0  0  0  0  0  0  0  0
    1.6670   -5.9269   18.2593 C   0  0  0  0  0  0  0  0  0  0  0  0
    0.9841   -5.4766   19.7542 S   0  0  0  0  0  0  0  0  0  0  0  0
   -0.6821   -7.4469   23.2213 H   0  0  0  0  0  0  0  0  0  0  0  0
    0.3890   -6.2706   22.5299 H   0  0  0  0  0  0  0  0  0  0  0  0
    0.6160   -8.0193   22.1731 H   0  0  0  0  0  0  0  0  0  0  0  0
   -2.4890   -5.8193   22.1238 H   0  0  0  0  0  0  0  0  0  0  0  0
   -2.5061   -5.6542   20.3633 H   0  0  0  0  0  0  0  0  0  0  0  0
   -1.2367   -4.8986   21.3376 H   0  0  0  0  0  0  0  0  0  0  0  0
   -2.2788   -8.5111   20.1371 H   0  0  0  0  0  0  0  0  0  0  0  0
   -3.9608   -7.7492   21.5578 H   0  0  0  0  0  0  0  0  0  0  0  0
   -2.9047   -7.9430   22.9704 H   0  0  0  0  0  0  0  0  0  0  0  0
   -4.7905  -12.2614   25.7128 H   0  0  0  0  0  0  0  0  0  0  0  0
   -6.4037  -14.0779   25.2328 H   0  0  0  0  0  0  0  0  0  0  0  0
   -7.4384  -14.2616   22.9824 H   0  0  0  0  0  0  0  0  0  0  0  0
   -6.8537  -12.6273   21.1903 H   0  0  0  0  0  0  0  0  0  0  0  0
   -5.1272  -10.2975   20.7481 H   0  0  0  0  0  0  0  0  0  0  0  0
   -0.5644   -8.4223   18.3838 H   0  0  0  0  0  0  0  0  0  0  0  0
    1.3234   -7.4931   16.8002 H   0  0  0  0  0  0  0  0  0  0  0  0
    2.4603   -5.3383   17.8202 H   0  0  0  0  0  0  0  0  0  0  0  0
  1  2  1  0
  2  3  1  0
  2  4  1  0
  4  5  1  0
  5  6  1  0
  6  7  2  0
  7  8  1  0
  8  9  2  0
  9 10  1  0
 10 11  2  0
 11 12  1  0
 12 13  2  0
 13 14  1  0
  2 15  1  0
 15 16  2  0
 16 17  1  0
 17 18  2  0
 18 19  1  0
 14  6  1  0
 19 15  1  0
 13  8  1  0
  1 20  1  0
  1 21  1  0
  1 22  1  0
  3 23  1  0
  3 24  1  0
  3 25  1  0
  4 26  1  0
  5 27  1  0
  5 28  1  0
  9 29  1  0
 10 30  1  0
 11 31  1  0
 12 32  1  0
 14 33  1  0
 16 34  1  0
 17 35  1  0
 18 36  1  0
M  END
>  <Energy>  (203) 
57.49200055643189

>  <compound_id>  (203) 
4853

>  <target_id>  (203) 
1

>  <reference_id>  (203) 
94

>  <inspiration_ids>  (203) 
[94, 66]

>  <energy_score>  (203) 
-0.6976864488457295

>  <distance_score>  (203) 
15.974133718349027

>  <path>  (203) 
/opt/xchem-fragalysis-2/maxwin/BulkDock/SCRATCH/511016/C4853-P94/C4853-P94.minimised.mol

>  <scratch_subdir>  (203) 
/opt/xchem-fragalysis-2/maxwin/BulkDock/SCRATCH/511016/C4853-P94

>  <fragmenstein_runtime>  (203) 
20.65375065803528

>  <fragmenstein_outcome>  (203) 
too moved

>  <fragmenstein_mode>  (203) 
expansion

>  <fragmenstein_error>  (203) 


$$$$
C4853-P66
     RDKit          3D

 36 38  0  0  0  0  0  0  0  0999 V2000
    6.6849  -14.8266   18.7045 C   0  0  0  0  0  0  0  0  0  0  0  0
    5.4935  -13.8403   18.7937 C   0  0  0  0  0  0  0  0  0  0  0  0
    5.7383  -12.9005   19.9934 C   0  0  0  0  0  0  0  0  0  0  0  0
    4.1134  -14.6608   18.9375 N   0  0  0  0  0  0  0  0  0  0  0  0
    3.9528  -15.6610   20.1166 C   0  0  0  0  0  0  0  0  0  0  0  0
    2.5479  -16.4945   20.4625 C   0  0  0  0  0  0  0  0  0  0  0  0
    2.3044  -17.8045   20.3038 N   0  0  0  0  0  0  0  0  0  0  0  0
    1.0946  -18.1144   20.9513 C   0  0  0  0  0  0  0  0  0  0  0  0
    0.3934  -19.3352   21.1117 C   0  0  0  0  0  0  0  0  0  0  0  0
   -0.8376  -19.3631   21.7997 C   0  0  0  0  0  0  0  0  0  0  0  0
   -1.3835  -18.1875   22.3108 C   0  0  0  0  0  0  0  0  0  0  0  0
   -0.7040  -16.9659   22.1650 C   0  0  0  0  0  0  0  0  0  0  0  0
    0.5485  -16.9718   21.5086 C   0  0  0  0  0  0  0  0  0  0  0  0
    1.5279  -16.0110   21.2882 N   0  0  0  0  0  0  0  0  0  0  0  0
    5.5771  -12.8902   17.5325 C   0  0  0  0  0  0  0  0  0  0  0  0
    4.5918  -12.4207   16.6807 C   0  0  0  0  0  0  0  0  0  0  0  0
    5.0554  -11.4378   15.7450 C   0  0  0  0  0  0  0  0  0  0  0  0
    6.4001  -11.1912   15.8678 C   0  0  0  0  0  0  0  0  0  0  0  0
    7.0992  -12.1125   17.1159 S   0  0  0  0  0  0  0  0  0  0  0  0
    7.6604  -14.3288   18.7092 H   0  0  0  0  0  0  0  0  0  0  0  0
    6.6973  -15.5114   19.5592 H   0  0  0  0  0  0  0  0  0  0  0  0
    6.6214  -15.4344   17.7943 H   0  0  0  0  0  0  0  0  0  0  0  0
    6.5147  -13.3070   20.6344 H   0  0  0  0  0  0  0  0  0  0  0  0
    4.8202  -12.7941   20.5699 H   0  0  0  0  0  0  0  0  0  0  0  0
    6.0693  -11.8927   19.7325 H   0  0  0  0  0  0  0  0  0  0  0  0
    4.0547  -15.2303   18.0906 H   0  0  0  0  0  0  0  0  0  0  0  0
    4.1812  -15.1253   21.0353 H   0  0  0  0  0  0  0  0  0  0  0  0
    4.7010  -16.4506   19.9840 H   0  0  0  0  0  0  0  0  0  0  0  0
    0.8152  -20.2435   20.6941 H   0  0  0  0  0  0  0  0  0  0  0  0
   -1.3631  -20.3070   21.9177 H   0  0  0  0  0  0  0  0  0  0  0  0
   -2.3353  -18.2147   22.8352 H   0  0  0  0  0  0  0  0  0  0  0  0
   -1.1088  -16.0520   22.5858 H   0  0  0  0  0  0  0  0  0  0  0  0
    1.5430  -15.0880   21.6987 H   0  0  0  0  0  0  0  0  0  0  0  0
    3.5591  -12.7343   16.7603 H   0  0  0  0  0  0  0  0  0  0  0  0
    4.4248  -10.9425   15.0176 H   0  0  0  0  0  0  0  0  0  0  0  0
    7.0052  -10.5109   15.2842 H   0  0  0  0  0  0  0  0  0  0  0  0
  1  2  1  0
  2  3  1  0
  2  4  1  0
  4  5  1  0
  5  6  1  0
  6  7  2  0
  7  8  1  0
  8  9  2  0
  9 10  1  0
 10 11  2  0
 11 12  1  0
 12 13  2  0
 13 14  1  0
  2 15  1  0
 15 16  2  0
 16 17  1  0
 17 18  2  0
 18 19  1  0
 14  6  1  0
 19 15  1  0
 13  8  1  0
  1 20  1  0
  1 21  1  0
  1 22  1  0
  3 23  1  0
  3 24  1  0
  3 25  1  0
  4 26  1  0
  5 27  1  0
  5 28  1  0
  9 29  1  0
 10 30  1  0
 11 31  1  0
 12 32  1  0
 14 33  1  0
 16 34  1  0
 17 35  1  0
 18 36  1  0
M  END
>  <Energy>  (204) 
60.70323042116005

>  <compound_id>  (204) 
4853

>  <target_id>  (204) 
1

>  <reference_id>  (204) 
66

>  <inspiration_ids>  (204) 
[94, 66]

>  <energy_score>  (204) 
2.513543415886602

>  <distance_score>  (204) 
15.77068284647911

>  <path>  (204) 
/opt/xchem-fragalysis-2/maxwin/BulkDock/SCRATCH/511016/C4853-P66/C4853-P66.minimised.mol

>  <scratch_subdir>  (204) 
/opt/xchem-fragalysis-2/maxwin/BulkDock/SCRATCH/511016/C4853-P66

>  <fragmenstein_runtime>  (204) 
17.60237693786621

>  <fragmenstein_outcome>  (204) 
too moved

>  <fragmenstein_mode>  (204) 
expansion

>  <fragmenstein_error>  (204) 


$$$$
C4854-P94
     RDKit          3D

 38 40  0  0  0  0  0  0  0  0999 V2000
   -1.5031   -7.9906   19.6067 C   0  0  0  0  0  0  0  0  0  0  0  0
   -1.1334   -7.6863   21.0760 C   0  0  0  0  0  0  0  0  0  0  0  0
   -0.0412   -8.6374   21.5511 C   0  0  0  0  0  0  0  0  0  0  0  0
   -2.3660   -7.9437   22.0948 N   0  0  0  0  0  0  0  0  0  0  0  0
   -3.2978   -9.1112   21.7107 C   0  0  0  0  0  0  0  0  0  0  0  0
   -4.2367  -10.0013   22.7257 C   0  0  0  0  0  0  0  0  0  0  0  0
   -4.8271  -11.1400   22.3369 N   0  0  0  0  0  0  0  0  0  0  0  0
   -5.3672  -11.7763   23.4422 C   0  0  0  0  0  0  0  0  0  0  0  0
   -6.0252  -13.0274   23.5531 C   0  0  0  0  0  0  0  0  0  0  0  0
   -6.4450  -13.4916   24.8096 C   0  0  0  0  0  0  0  0  0  0  0  0
   -6.2122  -12.7006   25.9411 C   0  0  0  0  0  0  0  0  0  0  0  0
   -6.6659  -13.1747   27.2568 N   0  0  0  0  0  0  0  0  0  0  0  0
   -7.3452  -14.2106   27.2929 O   0  0  0  0  0  0  0  0  0  0  0  0
   -6.3431  -12.5067   28.2491 O   0  0  0  0  0  0  0  0  0  0  0  0
   -5.5532  -11.4450   25.8525 C   0  0  0  0  0  0  0  0  0  0  0  0
   -5.1354  -11.0111   24.5749 C   0  0  0  0  0  0  0  0  0  0  0  0
   -4.4586   -9.8758   24.0991 N   0  0  0  0  0  0  0  0  0  0  0  0
   -0.4434   -6.2560   21.1107 C   0  0  0  0  0  0  0  0  0  0  0  0
   -0.3320   -5.3282   22.1333 C   0  0  0  0  0  0  0  0  0  0  0  0
    0.5207   -4.2157   21.8176 C   0  0  0  0  0  0  0  0  0  0  0  0
    1.0693   -4.3085   20.5621 C   0  0  0  0  0  0  0  0  0  0  0  0
    0.5444   -5.7111   19.7594 S   0  0  0  0  0  0  0  0  0  0  0  0
   -1.9452   -8.9833   19.4848 H   0  0  0  0  0  0  0  0  0  0  0  0
   -0.6447   -7.9812   18.9278 H   0  0  0  0  0  0  0  0  0  0  0  0
   -2.2366   -7.2646   19.2359 H   0  0  0  0  0  0  0  0  0  0  0  0
    0.7259   -8.7604   20.7994 H   0  0  0  0  0  0  0  0  0  0  0  0
    0.4063   -8.2587   22.4726 H   0  0  0  0  0  0  0  0  0  0  0  0
   -0.4346   -9.6411   21.7411 H   0  0  0  0  0  0  0  0  0  0  0  0
   -2.9304   -7.0963   22.0026 H   0  0  0  0  0  0  0  0  0  0  0  0
   -3.9844   -8.7430   20.9382 H   0  0  0  0  0  0  0  0  0  0  0  0
   -2.6733   -9.8884   21.2552 H   0  0  0  0  0  0  0  0  0  0  0  0
   -6.1924  -13.6189   22.6573 H   0  0  0  0  0  0  0  0  0  0  0  0
   -6.9478  -14.4537   24.8774 H   0  0  0  0  0  0  0  0  0  0  0  0
   -5.3708  -10.8314   26.7307 H   0  0  0  0  0  0  0  0  0  0  0  0
   -4.1215   -9.1097   24.6651 H   0  0  0  0  0  0  0  0  0  0  0  0
   -0.8106   -5.4625   23.0961 H   0  0  0  0  0  0  0  0  0  0  0  0
    0.7395   -3.4066   22.5028 H   0  0  0  0  0  0  0  0  0  0  0  0
    1.7607   -3.6265   20.0876 H   0  0  0  0  0  0  0  0  0  0  0  0
  1  2  1  0
  2  3  1  0
  2  4  1  0
  4  5  1  0
  5  6  1  0
  6  7  2  0
  7  8  1  0
  8  9  2  0
  9 10  1  0
 10 11  2  0
 11 12  1  0
 12 13  2  0
 12 14  1  0
 11 15  1  0
 15 16  2  0
 16 17  1  0
  2 18  1  0
 18 19  2  0
 19 20  1  0
 20 21  2  0
 21 22  1  0
 17  6  1  0
 22 18  1  0
 16  8  1  0
  1 23  1  0
  1 24  1  0
  1 25  1  0
  3 26  1  0
  3 27  1  0
  3 28  1  0
  4 29  1  0
  5 30  1  0
  5 31  1  0
  9 32  1  0
 10 33  1  0
 15 34  1  0
 17 35  1  0
 19 36  1  0
 20 37  1  0
 21 38  1  0
M  CHG  2  12   1  14  -1
M  END
>  <Energy>  (205) 
92.426869965326958

>  <compound_id>  (205) 
4854

>  <target_id>  (205) 
1

>  <reference_id>  (205) 
94

>  <inspiration_ids>  (205) 
[94, 66]

>  <energy_score>  (205) 
-25.18073340557055

>  <distance_score>  (205) 
15.973917500121956

>  <path>  (205) 
/opt/xchem-fragalysis-2/maxwin/BulkDock/SCRATCH/511016/C4854-P94/C4854-P94.minimised.mol

>  <scratch_subdir>  (205) 
/opt/xchem-fragalysis-2/maxwin/BulkDock/SCRATCH/511016/C4854-P94

>  <fragmenstein_runtime>  (205) 
29.940839767456055

>  <fragmenstein_outcome>  (205) 
too moved

>  <fragmenstein_mode>  (205) 
expansion

>  <fragmenstein_error>  (205) 


$$$$
C4854-P66
     RDKit          3D

 38 40  0  0  0  0  0  0  0  0999 V2000
    1.5615   -7.4856   24.2209 C   0  0  0  0  0  0  0  0  0  0  0  0
    2.7200   -8.5034   23.0259 C   0  0  0  0  0  0  0  0  0  0  0  0
    4.2599   -7.4036   23.7774 C   0  0  0  0  0  0  0  0  0  0  0  0
    3.1555  -10.5129   23.0096 N   0  0  0  0  0  0  0  0  0  0  0  0
    2.1705  -12.0371   23.9448 C   0  0  0  0  0  0  0  0  0  0  0  0
    1.4314  -12.7960   25.7137 C   0  0  0  0  0  0  0  0  0  0  0  0
    1.8398  -13.7072   26.6778 N   0  0  0  0  0  0  0  0  0  0  0  0
    0.9998  -13.8233   27.8141 C   0  0  0  0  0  0  0  0  0  0  0  0
    0.9792  -14.7191   28.9123 C   0  0  0  0  0  0  0  0  0  0  0  0
   -0.1986  -14.8232   29.6877 C   0  0  0  0  0  0  0  0  0  0  0  0
   -1.2935  -13.9871   29.4175 C   0  0  0  0  0  0  0  0  0  0  0  0
   -2.5093  -14.0929   30.2334 N   0  0  0  0  0  0  0  0  0  0  0  0
   -2.4764  -14.8309   31.2268 O   0  0  0  0  0  0  0  0  0  0  0  0
   -3.4940  -13.4269   29.8795 O   0  0  0  0  0  0  0  0  0  0  0  0
   -1.2308  -12.9991   28.4113 C   0  0  0  0  0  0  0  0  0  0  0  0
   -0.0550  -12.9766   27.6417 C   0  0  0  0  0  0  0  0  0  0  0  0
    0.4459  -12.1716   26.6473 N   0  0  0  0  0  0  0  0  0  0  0  0
    1.1628   -8.1367   21.8989 C   0  0  0  0  0  0  0  0  0  0  0  0
    0.6832   -6.9005   21.2925 C   0  0  0  0  0  0  0  0  0  0  0  0
   -0.3927   -7.0092   20.3803 C   0  0  0  0  0  0  0  0  0  0  0  0
   -0.9333   -8.2532   20.4476 C   0  0  0  0  0  0  0  0  0  0  0  0
   -0.1651   -9.2270   21.6031 S   0  0  0  0  0  0  0  0  0  0  0  0
    1.3273   -6.4583   23.8934 H   0  0  0  0  0  0  0  0  0  0  0  0
    1.9398   -7.2624   25.2068 H   0  0  0  0  0  0  0  0  0  0  0  0
    0.5414   -7.8750   24.2562 H   0  0  0  0  0  0  0  0  0  0  0  0
    4.9547   -7.9017   24.5133 H   0  0  0  0  0  0  0  0  0  0  0  0
    3.8453   -6.7395   24.5582 H   0  0  0  0  0  0  0  0  0  0  0  0
    5.0127   -6.9626   23.1434 H   0  0  0  0  0  0  0  0  0  0  0  0
    2.3524  -10.1624   22.4798 H   0  0  0  0  0  0  0  0  0  0  0  0
    2.9786  -12.7661   23.8387 H   0  0  0  0  0  0  0  0  0  0  0  0
    2.1285  -11.4150   24.7255 H   0  0  0  0  0  0  0  0  0  0  0  0
    1.8085  -15.4038   29.0616 H   0  0  0  0  0  0  0  0  0  0  0  0
   -0.2365  -15.5681   30.4807 H   0  0  0  0  0  0  0  0  0  0  0  0
   -2.0415  -12.3036   28.2239 H   0  0  0  0  0  0  0  0  0  0  0  0
    0.0975  -11.2681   26.4929 H   0  0  0  0  0  0  0  0  0  0  0  0
    1.1360   -5.9207   21.3811 H   0  0  0  0  0  0  0  0  0  0  0  0
   -0.7763   -6.2102   19.7589 H   0  0  0  0  0  0  0  0  0  0  0  0
   -1.7766   -8.6394   19.8925 H   0  0  0  0  0  0  0  0  0  0  0  0
  1  2  1  0
  2  3  1  0
  2  4  1  0
  4  5  1  0
  5  6  1  0
  6  7  2  0
  7  8  1  0
  8  9  2  0
  9 10  1  0
 10 11  2  0
 11 12  1  0
 12 13  2  0
 12 14  1  0
 11 15  1  0
 15 16  2  0
 16 17  1  0
  2 18  1  0
 18 19  2  0
 19 20  1  0
 20 21  2  0
 21 22  1  0
 17  6  1  0
 22 18  1  0
 16  8  1  0
  1 23  1  0
  1 24  1  0
  1 25  1  0
  3 26  1  0
  3 27  1  0
  3 28  1  0
  4 29  1  0
  5 30  1  0
  5 31  1  0
  9 32  1  0
 10 33  1  0
 15 34  1  0
 17 35  1  0
 19 36  1  0
 20 37  1  0
 21 38  1  0
M  CHG  2  12   1  14  -1
M  END
>  <Energy>  (206) 
672.78255859670548

>  <compound_id>  (206) 
4854

>  <target_id>  (206) 
1

>  <reference_id>  (206) 
66

>  <inspiration_ids>  (206) 
[94, 66]

>  <energy_score>  (206) 
555.174955225793

>  <distance_score>  (206) 
15.888810596429593

>  <path>  (206) 
/opt/xchem-fragalysis-2/maxwin/BulkDock/SCRATCH/511016/C4854-P66/C4854-P66.minimised.mol

>  <scratch_subdir>  (206) 
/opt/xchem-fragalysis-2/maxwin/BulkDock/SCRATCH/511016/C4854-P66

>  <fragmenstein_runtime>  (206) 
19.276840448379517

>  <fragmenstein_outcome>  (206) 
too moved

>  <fragmenstein_mode>  (206) 
expansion

>  <fragmenstein_error>  (206) 


$$$$
C4855-P94
     RDKit          3D

 39 41  0  0  0  0  0  0  0  0999 V2000
    3.8156  -12.3520   21.7458 C   0  0  0  0  0  0  0  0  0  0  0  0
    3.3542  -11.1806   22.7118 C   0  0  0  0  0  0  0  0  0  0  0  0
    2.2236   -9.5600   21.7539 C   0  0  0  0  0  0  0  0  0  0  0  0
    2.0599  -12.4253   23.6932 N   0  0  0  0  0  0  0  0  0  0  0  0
    0.8452  -14.0613   23.9700 C   0  0  0  0  0  0  0  0  0  0  0  0
   -1.0144  -14.8374   24.1308 C   0  0  0  0  0  0  0  0  0  0  0  0
   -1.5830  -15.4192   22.9568 N   0  0  0  0  0  0  0  0  0  0  0  0
   -2.7481  -16.1932   23.1624 C   0  0  0  0  0  0  0  0  0  0  0  0
   -3.3940  -17.1009   22.2938 C   0  0  0  0  0  0  0  0  0  0  0  0
   -4.5480  -17.7918   22.7077 C   0  0  0  0  0  0  0  0  0  0  0  0
   -5.0884  -17.5615   23.9638 C   0  0  0  0  0  0  0  0  0  0  0  0
   -4.4726  -16.6536   24.8284 C   0  0  0  0  0  0  0  0  0  0  0  0
   -3.2758  -16.0015   24.4109 C   0  0  0  0  0  0  0  0  0  0  0  0
   -2.3727  -15.1355   25.1090 N   0  0  0  0  0  0  0  0  0  0  0  0
   -2.7401  -15.0649   26.5654 C   0  0  0  0  0  0  0  0  0  0  0  0
   -3.9171  -14.4105   26.7915 F   0  0  0  0  0  0  0  0  0  0  0  0
   -2.9535  -16.3187   27.0913 F   0  0  0  0  0  0  0  0  0  0  0  0
    5.3933  -10.9059   23.2846 C   0  0  0  0  0  0  0  0  0  0  0  0
    6.4100  -10.0625   24.4457 C   0  0  0  0  0  0  0  0  0  0  0  0
    7.8317  -10.1946   24.5779 C   0  0  0  0  0  0  0  0  0  0  0  0
    8.0380  -11.5226   24.4298 C   0  0  0  0  0  0  0  0  0  0  0  0
    6.4994  -12.0459   24.8583 S   0  0  0  0  0  0  0  0  0  0  0  0
    3.3710  -13.0019   21.0045 H   0  0  0  0  0  0  0  0  0  0  0  0
    3.4989  -13.0497   22.4773 H   0  0  0  0  0  0  0  0  0  0  0  0
    4.7157  -12.1573   21.1456 H   0  0  0  0  0  0  0  0  0  0  0  0
    1.0546   -9.8015   21.6882 H   0  0  0  0  0  0  0  0  0  0  0  0
    1.8783   -9.4874   20.6834 H   0  0  0  0  0  0  0  0  0  0  0  0
    2.2758   -8.6007   22.3176 H   0  0  0  0  0  0  0  0  0  0  0  0
    2.0146  -12.0740   24.6495 H   0  0  0  0  0  0  0  0  0  0  0  0
    0.8677  -13.8952   25.0815 H   0  0  0  0  0  0  0  0  0  0  0  0
    0.0672  -13.8515   23.1633 H   0  0  0  0  0  0  0  0  0  0  0  0
   -2.9718  -17.2764   21.3086 H   0  0  0  0  0  0  0  0  0  0  0  0
   -5.0185  -18.4996   22.0298 H   0  0  0  0  0  0  0  0  0  0  0  0
   -5.9850  -18.0872   24.2774 H   0  0  0  0  0  0  0  0  0  0  0  0
   -4.9006  -16.4891   25.8143 H   0  0  0  0  0  0  0  0  0  0  0  0
   -1.9373  -14.6780   27.1633 H   0  0  0  0  0  0  0  0  0  0  0  0
    6.0015   -9.1193   24.8643 H   0  0  0  0  0  0  0  0  0  0  0  0
    8.5437   -9.4540   24.9151 H   0  0  0  0  0  0  0  0  0  0  0  0
    8.9487  -12.0917   24.5632 H   0  0  0  0  0  0  0  0  0  0  0  0
  1  2  1  0
  2  3  1  0
  2  4  1  0
  4  5  1  0
  5  6  1  0
  6  7  2  0
  7  8  1  0
  8  9  2  0
  9 10  1  0
 10 11  2  0
 11 12  1  0
 12 13  2  0
 13 14  1  0
 14 15  1  0
 15 16  1  0
 15 17  1  0
  2 18  1  0
 18 19  2  0
 19 20  1  0
 20 21  2  0
 21 22  1  0
 14  6  1  0
 22 18  1  0
 13  8  1  0
  1 23  1  0
  1 24  1  0
  1 25  1  0
  3 26  1  0
  3 27  1  0
  3 28  1  0
  4 29  1  0
  5 30  1  0
  5 31  1  0
  9 32  1  0
 10 33  1  0
 11 34  1  0
 12 35  1  0
 15 36  1  0
 19 37  1  0
 20 38  1  0
 21 39  1  0
M  END
>  <Energy>  (207) 
982.05699579433701

>  <compound_id>  (207) 
4855

>  <target_id>  (207) 
1

>  <reference_id>  (207) 
94

>  <inspiration_ids>  (207) 
[94, 66]

>  <energy_score>  (207) 
908.3412023850517

>  <distance_score>  (207) 
14.319171488292001

>  <path>  (207) 
/opt/xchem-fragalysis-2/maxwin/BulkDock/SCRATCH/511016/C4855-P94/C4855-P94.minimised.mol

>  <scratch_subdir>  (207) 
/opt/xchem-fragalysis-2/maxwin/BulkDock/SCRATCH/511016/C4855-P94

>  <fragmenstein_runtime>  (207) 
17.6157329082489

>  <fragmenstein_outcome>  (207) 
too moved

>  <fragmenstein_mode>  (207) 
expansion

>  <fragmenstein_error>  (207) 


$$$$
C4855-P66
     RDKit          3D

 39 41  0  0  0  0  0  0  0  0999 V2000
    8.4894  -11.0533   19.3573 C   0  0  0  0  0  0  0  0  0  0  0  0
    7.2229  -10.0054   19.9805 C   0  0  0  0  0  0  0  0  0  0  0  0
    6.9281   -7.8156   20.4385 C   0  0  0  0  0  0  0  0  0  0  0  0
    5.9344  -11.4555   20.4862 N   0  0  0  0  0  0  0  0  0  0  0  0
    4.3875  -12.3758   21.4108 C   0  0  0  0  0  0  0  0  0  0  0  0
    3.3954  -13.0813   23.1549 C   0  0  0  0  0  0  0  0  0  0  0  0
    3.4116  -14.6736   23.3604 N   0  0  0  0  0  0  0  0  0  0  0  0
    4.8185  -15.3668   24.3075 C   0  0  0  0  0  0  0  0  0  0  0  0
    5.5028  -16.4442   25.2118 C   0  0  0  0  0  0  0  0  0  0  0  0
    5.1929  -17.7521   25.6742 C   0  0  0  0  0  0  0  0  0  0  0  0
    4.2235  -18.4065   25.0300 C   0  0  0  0  0  0  0  0  0  0  0  0
    3.7792  -17.6741   23.9667 C   0  0  0  0  0  0  0  0  0  0  0  0
    3.9560  -16.0686   23.6504 C   0  0  0  0  0  0  0  0  0  0  0  0
    3.7588  -14.3822   24.4188 N   0  0  0  0  0  0  0  0  0  0  0  0
    4.1266  -14.2856   26.1299 C   0  0  0  0  0  0  0  0  0  0  0  0
    3.1754  -14.0148   27.0718 F   0  0  0  0  0  0  0  0  0  0  0  0
    5.3146  -13.6476   26.3827 F   0  0  0  0  0  0  0  0  0  0  0  0
    8.0496   -8.8892   18.7175 C   0  0  0  0  0  0  0  0  0  0  0  0
    7.2955   -6.9788   18.7030 C   0  0  0  0  0  0  0  0  0  0  0  0
    6.0954   -6.6666   17.1505 C   0  0  0  0  0  0  0  0  0  0  0  0
    5.6904   -8.1803   16.4434 C   0  0  0  0  0  0  0  0  0  0  0  0
    6.8568  -10.0917   16.9830 S   0  0  0  0  0  0  0  0  0  0  0  0
    9.4873  -10.5983   19.3755 H   0  0  0  0  0  0  0  0  0  0  0  0
    8.5586  -11.9920   19.9267 H   0  0  0  0  0  0  0  0  0  0  0  0
    8.2941  -11.4454   18.3628 H   0  0  0  0  0  0  0  0  0  0  0  0
    7.9672   -7.2259   20.4932 H   0  0  0  0  0  0  0  0  0  0  0  0
    6.8303   -7.2140   21.4237 H   0  0  0  0  0  0  0  0  0  0  0  0
    5.9539   -7.6770   20.0521 H   0  0  0  0  0  0  0  0  0  0  0  0
    5.5890  -11.6400   19.5225 H   0  0  0  0  0  0  0  0  0  0  0  0
    3.7918  -12.7800   20.6142 H   0  0  0  0  0  0  0  0  0  0  0  0
    5.0166  -13.2417   21.1333 H   0  0  0  0  0  0  0  0  0  0  0  0
    6.3973  -16.0705   25.7325 H   0  0  0  0  0  0  0  0  0  0  0  0
    5.7967  -18.2265   26.4411 H   0  0  0  0  0  0  0  0  0  0  0  0
    3.9761  -19.4449   25.1944 H   0  0  0  0  0  0  0  0  0  0  0  0
    3.2403  -18.2568   23.2132 H   0  0  0  0  0  0  0  0  0  0  0  0
    4.3234  -15.3005   26.4398 H   0  0  0  0  0  0  0  0  0  0  0  0
    7.2524   -6.2144   19.5019 H   0  0  0  0  0  0  0  0  0  0  0  0
    5.4636   -5.7892   17.0986 H   0  0  0  0  0  0  0  0  0  0  0  0
    4.9649   -8.4446   15.6878 H   0  0  0  0  0  0  0  0  0  0  0  0
  1  2  1  0
  2  3  1  0
  2  4  1  0
  4  5  1  0
  5  6  1  0
  6  7  2  0
  7  8  1  0
  8  9  2  0
  9 10  1  0
 10 11  2  0
 11 12  1  0
 12 13  2  0
 13 14  1  0
 14 15  1  0
 15 16  1  0
 15 17  1  0
  2 18  1  0
 18 19  2  0
 19 20  1  0
 20 21  2  0
 21 22  1  0
 14  6  1  0
 22 18  1  0
 13  8  1  0
  1 23  1  0
  1 24  1  0
  1 25  1  0
  3 26  1  0
  3 27  1  0
  3 28  1  0
  4 29  1  0
  5 30  1  0
  5 31  1  0
  9 32  1  0
 10 33  1  0
 11 34  1  0
 12 35  1  0
 15 36  1  0
 19 37  1  0
 20 38  1  0
 21 39  1  0
M  END
>  <Energy>  (208) 
1986.1461150289299

>  <compound_id>  (208) 
4855

>  <target_id>  (208) 
1

>  <reference_id>  (208) 
66

>  <inspiration_ids>  (208) 
[94, 66]

>  <energy_score>  (208) 
1912.4303216196886

>  <distance_score>  (208) 
15.783889285251263

>  <path>  (208) 
/opt/xchem-fragalysis-2/maxwin/BulkDock/SCRATCH/511016/C4855-P66/C4855-P66.minimised.mol

>  <scratch_subdir>  (208) 
/opt/xchem-fragalysis-2/maxwin/BulkDock/SCRATCH/511016/C4855-P66

>  <fragmenstein_runtime>  (208) 
13.88616418838501

>  <fragmenstein_outcome>  (208) 
too moved

>  <fragmenstein_mode>  (208) 
expansion

>  <fragmenstein_error>  (208) 


$$$$
C4856-P94
     RDKit          3D

 39 41  0  0  0  0  0  0  0  0999 V2000
   -0.4308  -15.6122   19.9544 C   0  0  0  0  0  0  0  0  0  0  0  0
   -1.3552  -14.5123   19.8319 N   0  0  0  0  0  0  0  0  0  0  0  0
   -1.0080  -13.1424   19.6712 C   0  0  0  0  0  0  0  0  0  0  0  0
    0.4755  -12.6386   19.1042 C   0  0  0  0  0  0  0  0  0  0  0  0
    1.1557  -11.2288   19.3652 N   0  0  0  0  0  0  0  0  0  0  0  0
    2.5789  -11.0105   18.7188 C   0  0  0  0  0  0  0  0  0  0  0  0
    3.6518  -11.6288   19.6563 C   0  0  0  0  0  0  0  0  0  0  0  0
    2.6296  -11.7110   17.3398 C   0  0  0  0  0  0  0  0  0  0  0  0
    3.0155   -9.4982   18.5410 C   0  0  0  0  0  0  0  0  0  0  0  0
    2.4333   -8.3213   18.9846 C   0  0  0  0  0  0  0  0  0  0  0  0
    3.1823   -7.1418   18.6525 C   0  0  0  0  0  0  0  0  0  0  0  0
    4.3375   -7.4288   17.9674 C   0  0  0  0  0  0  0  0  0  0  0  0
    4.5252   -9.1056   17.7360 S   0  0  0  0  0  0  0  0  0  0  0  0
   -2.1407  -12.4486   19.8352 N   0  0  0  0  0  0  0  0  0  0  0  0
   -3.1976  -13.3677   20.0058 C   0  0  0  0  0  0  0  0  0  0  0  0
   -4.5778  -13.1776   20.2702 C   0  0  0  0  0  0  0  0  0  0  0  0
   -5.4370  -14.2809   20.4629 C   0  0  0  0  0  0  0  0  0  0  0  0
   -4.9557  -15.5763   20.3322 C   0  0  0  0  0  0  0  0  0  0  0  0
   -3.6049  -15.7883   20.0334 C   0  0  0  0  0  0  0  0  0  0  0  0
   -2.7362  -14.6674   19.9337 C   0  0  0  0  0  0  0  0  0  0  0  0
    0.2922  -15.5425   19.1372 H   0  0  0  0  0  0  0  0  0  0  0  0
    0.0849  -15.5272   20.9100 H   0  0  0  0  0  0  0  0  0  0  0  0
   -0.9415  -16.5719   19.8664 H   0  0  0  0  0  0  0  0  0  0  0  0
    1.1959  -13.4005   19.4123 H   0  0  0  0  0  0  0  0  0  0  0  0
    0.3349  -12.7140   18.0191 H   0  0  0  0  0  0  0  0  0  0  0  0
    0.5261  -10.5709   18.9002 H   0  0  0  0  0  0  0  0  0  0  0  0
    3.6719  -11.1169   20.6259 H   0  0  0  0  0  0  0  0  0  0  0  0
    4.6600  -11.5839   19.2307 H   0  0  0  0  0  0  0  0  0  0  0  0
    3.4421  -12.6876   19.8435 H   0  0  0  0  0  0  0  0  0  0  0  0
    2.4750  -12.7921   17.4217 H   0  0  0  0  0  0  0  0  0  0  0  0
    3.6011  -11.5983   16.8473 H   0  0  0  0  0  0  0  0  0  0  0  0
    1.8725  -11.2994   16.6623 H   0  0  0  0  0  0  0  0  0  0  0  0
    1.5015   -8.3035   19.5380 H   0  0  0  0  0  0  0  0  0  0  0  0
    2.8766   -6.1356   18.9121 H   0  0  0  0  0  0  0  0  0  0  0  0
    5.0780   -6.7351   17.5941 H   0  0  0  0  0  0  0  0  0  0  0  0
   -4.9601  -12.1646   20.3444 H   0  0  0  0  0  0  0  0  0  0  0  0
   -6.4879  -14.1056   20.6779 H   0  0  0  0  0  0  0  0  0  0  0  0
   -5.6252  -16.4245   20.4404 H   0  0  0  0  0  0  0  0  0  0  0  0
   -3.2199  -16.7990   19.9412 H   0  0  0  0  0  0  0  0  0  0  0  0
  1  2  1  0
  2  3  1  0
  3  4  1  0
  4  5  1  0
  5  6  1  0
  6  7  1  0
  6  8  1  0
  6  9  1  0
  9 10  2  0
 10 11  1  0
 11 12  2  0
 12 13  1  0
  3 14  2  0
 14 15  1  0
 15 16  2  0
 16 17  1  0
 17 18  2  0
 18 19  1  0
 19 20  2  0
 20  2  1  0
 13  9  1  0
 20 15  1  0
  1 21  1  0
  1 22  1  0
  1 23  1  0
  4 24  1  0
  4 25  1  0
  5 26  1  0
  7 27  1  0
  7 28  1  0
  7 29  1  0
  8 30  1  0
  8 31  1  0
  8 32  1  0
 10 33  1  0
 11 34  1  0
 12 35  1  0
 16 36  1  0
 17 37  1  0
 18 38  1  0
 19 39  1  0
M  END
>  <Energy>  (209) 
65.666624517055141

>  <compound_id>  (209) 
4856

>  <target_id>  (209) 
1

>  <reference_id>  (209) 
94

>  <inspiration_ids>  (209) 
[94, 66]

>  <energy_score>  (209) 
-1.2247901438482813

>  <distance_score>  (209) 
16.10355963127676

>  <path>  (209) 
/opt/xchem-fragalysis-2/maxwin/BulkDock/SCRATCH/511016/C4856-P94/C4856-P94.minimised.mol

>  <scratch_subdir>  (209) 
/opt/xchem-fragalysis-2/maxwin/BulkDock/SCRATCH/511016/C4856-P94

>  <fragmenstein_runtime>  (209) 
22.528618574142456

>  <fragmenstein_outcome>  (209) 
too moved

>  <fragmenstein_mode>  (209) 
expansion

>  <fragmenstein_error>  (209) 


$$$$
C4856-P66
     RDKit          3D

 39 41  0  0  0  0  0  0  0  0999 V2000
    4.5588  -19.2003   24.1111 C   0  0  0  0  0  0  0  0  0  0  0  0
    4.2721  -19.2738   22.6984 N   0  0  0  0  0  0  0  0  0  0  0  0
    4.5827  -18.2871   21.7170 C   0  0  0  0  0  0  0  0  0  0  0  0
    5.6508  -17.0176   21.9334 C   0  0  0  0  0  0  0  0  0  0  0  0
    5.8760  -15.8615   20.8845 N   0  0  0  0  0  0  0  0  0  0  0  0
    6.7579  -14.6379   21.2926 C   0  0  0  0  0  0  0  0  0  0  0  0
    8.2170  -15.0883   21.5652 C   0  0  0  0  0  0  0  0  0  0  0  0
    6.1451  -14.0254   22.5739 C   0  0  0  0  0  0  0  0  0  0  0  0
    6.8797  -13.5057   20.1832 C   0  0  0  0  0  0  0  0  0  0  0  0
    6.5025  -13.4975   18.8480 C   0  0  0  0  0  0  0  0  0  0  0  0
    6.9072  -12.3187   18.1332 C   0  0  0  0  0  0  0  0  0  0  0  0
    7.5953  -11.4379   18.9306 C   0  0  0  0  0  0  0  0  0  0  0  0
    7.7106  -12.0017   20.5353 S   0  0  0  0  0  0  0  0  0  0  0  0
    3.7330  -18.4878   20.7053 N   0  0  0  0  0  0  0  0  0  0  0  0
    2.9334  -19.6136   21.0141 C   0  0  0  0  0  0  0  0  0  0  0  0
    1.7836  -20.1434   20.3766 C   0  0  0  0  0  0  0  0  0  0  0  0
    1.0416  -21.1808   20.9814 C   0  0  0  0  0  0  0  0  0  0  0  0
    1.4485  -21.7250   22.1958 C   0  0  0  0  0  0  0  0  0  0  0  0
    2.6044  -21.2476   22.8313 C   0  0  0  0  0  0  0  0  0  0  0  0
    3.3190  -20.1785   22.2222 C   0  0  0  0  0  0  0  0  0  0  0  0
    5.5859  -18.8468   24.2061 H   0  0  0  0  0  0  0  0  0  0  0  0
    4.4936  -20.1892   24.5682 H   0  0  0  0  0  0  0  0  0  0  0  0
    3.8502  -18.5101   24.5675 H   0  0  0  0  0  0  0  0  0  0  0  0
    6.6211  -17.4976   22.0992 H   0  0  0  0  0  0  0  0  0  0  0  0
    5.3051  -16.5612   22.8654 H   0  0  0  0  0  0  0  0  0  0  0  0
    4.9465  -15.5057   20.6588 H   0  0  0  0  0  0  0  0  0  0  0  0
    8.6792  -15.4970   20.6589 H   0  0  0  0  0  0  0  0  0  0  0  0
    8.8494  -14.2702   21.9265 H   0  0  0  0  0  0  0  0  0  0  0  0
    8.2514  -15.8661   22.3358 H   0  0  0  0  0  0  0  0  0  0  0  0
    5.1062  -13.7177   22.4058 H   0  0  0  0  0  0  0  0  0  0  0  0
    6.1643  -14.7247   23.4156 H   0  0  0  0  0  0  0  0  0  0  0  0
    6.6936  -13.1422   22.9179 H   0  0  0  0  0  0  0  0  0  0  0  0
    5.9864  -14.3321   18.3865 H   0  0  0  0  0  0  0  0  0  0  0  0
    6.7242  -12.1524   17.0782 H   0  0  0  0  0  0  0  0  0  0  0  0
    8.0431  -10.4965   18.6475 H   0  0  0  0  0  0  0  0  0  0  0  0
    1.4478  -19.6961   19.4474 H   0  0  0  0  0  0  0  0  0  0  0  0
    0.1413  -21.5456   20.4955 H   0  0  0  0  0  0  0  0  0  0  0  0
    0.8592  -22.5066   22.6669 H   0  0  0  0  0  0  0  0  0  0  0  0
    2.8815  -21.6261   23.8084 H   0  0  0  0  0  0  0  0  0  0  0  0
  1  2  1  0
  2  3  1  0
  3  4  1  0
  4  5  1  0
  5  6  1  0
  6  7  1  0
  6  8  1  0
  6  9  1  0
  9 10  2  0
 10 11  1  0
 11 12  2  0
 12 13  1  0
  3 14  2  0
 14 15  1  0
 15 16  2  0
 16 17  1  0
 17 18  2  0
 18 19  1  0
 19 20  2  0
 20  2  1  0
 13  9  1  0
 20 15  1  0
  1 21  1  0
  1 22  1  0
  1 23  1  0
  4 24  1  0
  4 25  1  0
  5 26  1  0
  7 27  1  0
  7 28  1  0
  7 29  1  0
  8 30  1  0
  8 31  1  0
  8 32  1  0
 10 33  1  0
 11 34  1  0
 12 35  1  0
 16 36  1  0
 17 37  1  0
 18 38  1  0
 19 39  1  0
M  END
>  <Energy>  (210) 
65.113344745974246

>  <compound_id>  (210) 
4856

>  <target_id>  (210) 
1

>  <reference_id>  (210) 
66

>  <inspiration_ids>  (210) 
[94, 66]

>  <energy_score>  (210) 
-1.7780699149286079

>  <distance_score>  (210) 
16.63441564357234

>  <path>  (210) 
/opt/xchem-fragalysis-2/maxwin/BulkDock/SCRATCH/511016/C4856-P66/C4856-P66.minimised.mol

>  <scratch_subdir>  (210) 
/opt/xchem-fragalysis-2/maxwin/BulkDock/SCRATCH/511016/C4856-P66

>  <fragmenstein_runtime>  (210) 
31.14557909965515

>  <fragmenstein_outcome>  (210) 
too moved

>  <fragmenstein_mode>  (210) 
expansion

>  <fragmenstein_error>  (210) 


$$$$
C4857-P94
     RDKit          3D

 39 41  0  0  0  0  0  0  0  0999 V2000
    3.9634  -14.1632   24.4052 C   0  0  0  0  0  0  0  0  0  0  0  0
    2.4673  -13.5811   23.8172 C   0  0  0  0  0  0  0  0  0  0  0  0
    3.3089  -12.4387   22.5223 C   0  0  0  0  0  0  0  0  0  0  0  0
    4.6682  -11.6841   22.2657 C   0  0  0  0  0  0  0  0  0  0  0  0
    4.7867  -10.3440   21.8684 C   0  0  0  0  0  0  0  0  0  0  0  0
    6.1045   -9.9547   21.4804 C   0  0  0  0  0  0  0  0  0  0  0  0
    6.9730  -11.0163   21.5440 C   0  0  0  0  0  0  0  0  0  0  0  0
    6.1927  -12.4608   22.0484 S   0  0  0  0  0  0  0  0  0  0  0  0
    0.5462  -14.2508   24.0069 N   0  0  0  0  0  0  0  0  0  0  0  0
   -1.2018  -15.2452   24.5458 C   0  0  0  0  0  0  0  0  0  0  0  0
   -2.2135  -16.9848   25.2526 C   0  0  0  0  0  0  0  0  0  0  0  0
   -1.8437  -18.3649   25.1695 N   0  0  0  0  0  0  0  0  0  0  0  0
   -2.6886  -19.7131   25.5359 C   0  0  0  0  0  0  0  0  0  0  0  0
   -3.2378  -20.8935   24.9253 C   0  0  0  0  0  0  0  0  0  0  0  0
   -3.6637  -21.9418   25.7320 C   0  0  0  0  0  0  0  0  0  0  0  0
   -3.3917  -21.8676   27.0788 C   0  0  0  0  0  0  0  0  0  0  0  0
   -2.7802  -20.7185   27.6234 C   0  0  0  0  0  0  0  0  0  0  0  0
   -2.5316  -19.5200   26.8167 C   0  0  0  0  0  0  0  0  0  0  0  0
   -2.1282  -17.8233   26.7932 N   0  0  0  0  0  0  0  0  0  0  0  0
   -2.7796  -16.8614   27.5613 C   0  0  0  0  0  0  0  0  0  0  0  0
    3.9925  -14.4345   25.4602 H   0  0  0  0  0  0  0  0  0  0  0  0
    4.7489  -13.4205   24.2829 H   0  0  0  0  0  0  0  0  0  0  0  0
    4.3122  -15.0188   23.8077 H   0  0  0  0  0  0  0  0  0  0  0  0
    2.5850  -14.4529   23.1772 H   0  0  0  0  0  0  0  0  0  0  0  0
    3.4734  -13.1461   21.6842 H   0  0  0  0  0  0  0  0  0  0  0  0
    2.5648  -11.6901   22.2598 H   0  0  0  0  0  0  0  0  0  0  0  0
    3.9310   -9.6783   21.8355 H   0  0  0  0  0  0  0  0  0  0  0  0
    6.3859   -8.9624   21.1526 H   0  0  0  0  0  0  0  0  0  0  0  0
    8.0259  -11.0326   21.2984 H   0  0  0  0  0  0  0  0  0  0  0  0
    0.5021  -13.7018   24.8797 H   0  0  0  0  0  0  0  0  0  0  0  0
   -1.7000  -14.5100   25.2179 H   0  0  0  0  0  0  0  0  0  0  0  0
   -1.6579  -15.1873   23.5893 H   0  0  0  0  0  0  0  0  0  0  0  0
   -3.2765  -20.9956   23.8468 H   0  0  0  0  0  0  0  0  0  0  0  0
   -4.0920  -22.8373   25.2941 H   0  0  0  0  0  0  0  0  0  0  0  0
   -3.5998  -22.7178   27.7215 H   0  0  0  0  0  0  0  0  0  0  0  0
   -2.5029  -20.8328   28.6653 H   0  0  0  0  0  0  0  0  0  0  0  0
   -2.2304  -15.9143   27.4782 H   0  0  0  0  0  0  0  0  0  0  0  0
   -3.7201  -17.0261   27.1458 H   0  0  0  0  0  0  0  0  0  0  0  0
   -3.3811  -16.6743   28.4349 H   0  0  0  0  0  0  0  0  0  0  0  0
  1  2  1  0
  2  3  1  0
  3  4  1  0
  4  5  2  0
  5  6  1  0
  6  7  2  0
  7  8  1  0
  2  9  1  0
  9 10  1  0
 10 11  1  0
 11 12  2  0
 12 13  1  0
 13 14  2  0
 14 15  1  0
 15 16  2  0
 16 17  1  0
 17 18  2  0
 18 19  1  0
 19 20  1  0
  8  4  1  0
 19 11  1  0
 18 13  1  0
  1 21  1  0
  1 22  1  0
  1 23  1  0
  2 24  1  0
  3 25  1  0
  3 26  1  0
  5 27  1  0
  6 28  1  0
  7 29  1  0
  9 30  1  0
 10 31  1  0
 10 32  1  0
 14 33  1  0
 15 34  1  0
 16 35  1  0
 17 36  1  0
 20 37  1  0
 20 38  1  0
 20 39  1  0
M  END
>  <Energy>  (211) 
876.5920517825756

>  <compound_id>  (211) 
4857

>  <target_id>  (211) 
1

>  <reference_id>  (211) 
94

>  <inspiration_ids>  (211) 
[94, 66]

>  <energy_score>  (211) 
795.8230309047415

>  <distance_score>  (211) 
13.217771033909207

>  <path>  (211) 
/opt/xchem-fragalysis-2/maxwin/BulkDock/SCRATCH/511016/C4857-P94/C4857-P94.minimised.mol

>  <scratch_subdir>  (211) 
/opt/xchem-fragalysis-2/maxwin/BulkDock/SCRATCH/511016/C4857-P94

>  <fragmenstein_runtime>  (211) 
15.506655931472778

>  <fragmenstein_outcome>  (211) 
too moved

>  <fragmenstein_mode>  (211) 
expansion

>  <fragmenstein_error>  (211) 


$$$$
C4857-P66
     RDKit          3D

 39 41  0  0  0  0  0  0  0  0999 V2000
   -4.0436   -7.1980   21.3931 C   0  0  0  0  0  0  0  0  0  0  0  0
   -3.3461   -8.5415   21.6057 C   0  0  0  0  0  0  0  0  0  0  0  0
   -1.7674   -8.3008   21.9034 C   0  0  0  0  0  0  0  0  0  0  0  0
   -0.8185   -7.5925   20.9025 C   0  0  0  0  0  0  0  0  0  0  0  0
   -0.8447   -7.4568   19.5236 C   0  0  0  0  0  0  0  0  0  0  0  0
    0.3158   -6.8023   18.9834 C   0  0  0  0  0  0  0  0  0  0  0  0
    1.2170   -6.4556   19.9609 C   0  0  0  0  0  0  0  0  0  0  0  0
    0.6627   -6.9065   21.5150 S   0  0  0  0  0  0  0  0  0  0  0  0
   -4.1515   -9.3532   22.7157 N   0  0  0  0  0  0  0  0  0  0  0  0
   -5.6597   -9.7974   22.4167 C   0  0  0  0  0  0  0  0  0  0  0  0
   -6.5429  -10.9054   23.3982 C   0  0  0  0  0  0  0  0  0  0  0  0
   -6.9405  -10.7396   24.6655 N   0  0  0  0  0  0  0  0  0  0  0  0
   -7.5927  -11.9038   25.0952 C   0  0  0  0  0  0  0  0  0  0  0  0
   -8.0665  -12.3026   26.3653 C   0  0  0  0  0  0  0  0  0  0  0  0
   -8.7281  -13.5378   26.5183 C   0  0  0  0  0  0  0  0  0  0  0  0
   -8.9323  -14.3718   25.4219 C   0  0  0  0  0  0  0  0  0  0  0  0
   -8.4528  -14.0050   24.1573 C   0  0  0  0  0  0  0  0  0  0  0  0
   -7.7692  -12.7702   24.0353 C   0  0  0  0  0  0  0  0  0  0  0  0
   -7.1532  -12.1105   22.9738 N   0  0  0  0  0  0  0  0  0  0  0  0
   -7.2445  -12.6417   21.6449 C   0  0  0  0  0  0  0  0  0  0  0  0
   -5.0875   -7.3335   21.0935 H   0  0  0  0  0  0  0  0  0  0  0  0
   -3.5577   -6.6211   20.6004 H   0  0  0  0  0  0  0  0  0  0  0  0
   -4.0267   -6.5954   22.3076 H   0  0  0  0  0  0  0  0  0  0  0  0
   -3.4162   -9.1414   20.6908 H   0  0  0  0  0  0  0  0  0  0  0  0
   -1.7095   -7.7688   22.8619 H   0  0  0  0  0  0  0  0  0  0  0  0
   -1.3343   -9.2972   22.0477 H   0  0  0  0  0  0  0  0  0  0  0  0
   -1.6571   -7.8303   18.9118 H   0  0  0  0  0  0  0  0  0  0  0  0
    0.4735   -6.6130   17.9288 H   0  0  0  0  0  0  0  0  0  0  0  0
    2.1715   -5.9624   19.8440 H   0  0  0  0  0  0  0  0  0  0  0  0
   -4.2338   -8.7397   23.5276 H   0  0  0  0  0  0  0  0  0  0  0  0
   -6.2670   -8.8851   22.4480 H   0  0  0  0  0  0  0  0  0  0  0  0
   -5.6834  -10.1942   21.3976 H   0  0  0  0  0  0  0  0  0  0  0  0
   -7.9044  -11.6472   27.2165 H   0  0  0  0  0  0  0  0  0  0  0  0
   -9.0829  -13.8283   27.5041 H   0  0  0  0  0  0  0  0  0  0  0  0
   -9.4546  -15.3153   25.5530 H   0  0  0  0  0  0  0  0  0  0  0  0
   -8.5989  -14.6555   23.3026 H   0  0  0  0  0  0  0  0  0  0  0  0
   -6.5133  -12.1661   20.9912 H   0  0  0  0  0  0  0  0  0  0  0  0
   -7.0587  -13.7179   21.6625 H   0  0  0  0  0  0  0  0  0  0  0  0
   -8.2504  -12.4428   21.2648 H   0  0  0  0  0  0  0  0  0  0  0  0
  1  2  1  0
  2  3  1  0
  3  4  1  0
  4  5  2  0
  5  6  1  0
  6  7  2  0
  7  8  1  0
  2  9  1  0
  9 10  1  0
 10 11  1  0
 11 12  2  0
 12 13  1  0
 13 14  2  0
 14 15  1  0
 15 16  2  0
 16 17  1  0
 17 18  2  0
 18 19  1  0
 19 20  1  0
  8  4  1  0
 19 11  1  0
 18 13  1  0
  1 21  1  0
  1 22  1  0
  1 23  1  0
  2 24  1  0
  3 25  1  0
  3 26  1  0
  5 27  1  0
  6 28  1  0
  7 29  1  0
  9 30  1  0
 10 31  1  0
 10 32  1  0
 14 33  1  0
 15 34  1  0
 16 35  1  0
 17 36  1  0
 20 37  1  0
 20 38  1  0
 20 39  1  0
M  END
>  <Energy>  (212) 
84.432078634006572

>  <compound_id>  (212) 
4857

>  <target_id>  (212) 
1

>  <reference_id>  (212) 
66

>  <inspiration_ids>  (212) 
[94, 66]

>  <energy_score>  (212) 
3.6630577561724635

>  <distance_score>  (212) 
15.528933071639232

>  <path>  (212) 
/opt/xchem-fragalysis-2/maxwin/BulkDock/SCRATCH/511016/C4857-P66/C4857-P66.minimised.mol

>  <scratch_subdir>  (212) 
/opt/xchem-fragalysis-2/maxwin/BulkDock/SCRATCH/511016/C4857-P66

>  <fragmenstein_runtime>  (212) 
21.54029631614685

>  <fragmenstein_outcome>  (212) 
too moved

>  <fragmenstein_mode>  (212) 
expansion

>  <fragmenstein_error>  (212) 


$$$$
C4858-P94
     RDKit          3D

 53 56  0  0  0  0  0  0  0  0999 V2000
    8.3987  -12.1768   28.4082 C   0  0  0  0  0  0  0  0  0  0  0  0
    7.1703  -11.4894   27.8325 C   0  0  0  0  0  0  0  0  0  0  0  0
    5.8998  -12.2226   27.2641 C   0  0  0  0  0  0  0  0  0  0  0  0
    5.5821  -13.0077   25.6734 C   0  0  0  0  0  0  0  0  0  0  0  0
    3.8562  -13.9483   25.3065 N   0  0  0  0  0  0  0  0  0  0  0  0
    2.2211  -13.3415   24.4785 C   0  0  0  0  0  0  0  0  0  0  0  0
    2.1344  -12.2430   23.9707 O   0  0  0  0  0  0  0  0  0  0  0  0
    0.2794  -14.3191   24.4621 C   0  0  0  0  0  0  0  0  0  0  0  0
   -1.3019  -13.8956   25.5169 C   0  0  0  0  0  0  0  0  0  0  0  0
   -1.8727  -15.0831   27.0292 C   0  0  0  0  0  0  0  0  0  0  0  0
   -2.4793  -16.7580   26.8606 N   0  0  0  0  0  0  0  0  0  0  0  0
   -2.5658  -18.0316   27.5105 C   0  0  0  0  0  0  0  0  0  0  0  0
   -1.7457  -19.0932   27.6236 N   0  0  0  0  0  0  0  0  0  0  0  0
   -2.5146  -20.2204   27.9637 C   0  0  0  0  0  0  0  0  0  0  0  0
   -2.1937  -21.5787   28.1265 C   0  0  0  0  0  0  0  0  0  0  0  0
   -3.1519  -22.5305   27.7274 C   0  0  0  0  0  0  0  0  0  0  0  0
   -4.3831  -22.1201   27.2169 C   0  0  0  0  0  0  0  0  0  0  0  0
   -4.7615  -20.7817   27.2983 C   0  0  0  0  0  0  0  0  0  0  0  0
   -3.8422  -19.8941   27.8656 C   0  0  0  0  0  0  0  0  0  0  0  0
   -3.8284  -18.5176   28.0909 N   0  0  0  0  0  0  0  0  0  0  0  0
   -2.2837  -16.9807   25.3978 C   0  0  0  0  0  0  0  0  0  0  0  0
   -1.4372  -15.4430   24.4477 C   0  0  0  0  0  0  0  0  0  0  0  0
    7.1428  -12.4173   25.0354 C   0  0  0  0  0  0  0  0  0  0  0  0
    7.4658  -11.0919   24.7068 C   0  0  0  0  0  0  0  0  0  0  0  0
    8.8609  -10.7595   24.8055 C   0  0  0  0  0  0  0  0  0  0  0  0
    9.6268  -11.8795   24.9690 C   0  0  0  0  0  0  0  0  0  0  0  0
    8.6639  -13.2493   25.2853 S   0  0  0  0  0  0  0  0  0  0  0  0
    8.2768  -12.3488   29.4838 H   0  0  0  0  0  0  0  0  0  0  0  0
    9.2700  -11.5193   28.3082 H   0  0  0  0  0  0  0  0  0  0  0  0
    8.6465  -13.1272   27.9424 H   0  0  0  0  0  0  0  0  0  0  0  0
    6.7876  -10.8915   28.6772 H   0  0  0  0  0  0  0  0  0  0  0  0
    7.4946  -10.7073   27.1445 H   0  0  0  0  0  0  0  0  0  0  0  0
    5.3835  -12.7978   28.0287 H   0  0  0  0  0  0  0  0  0  0  0  0
    5.3576  -11.2786   27.2236 H   0  0  0  0  0  0  0  0  0  0  0  0
    5.3326  -12.1746   25.0778 H   0  0  0  0  0  0  0  0  0  0  0  0
    3.7030  -14.8216   25.7276 H   0  0  0  0  0  0  0  0  0  0  0  0
    0.0047  -14.0395   23.4147 H   0  0  0  0  0  0  0  0  0  0  0  0
   -0.5321  -13.2993   25.9800 H   0  0  0  0  0  0  0  0  0  0  0  0
   -2.0634  -13.1110   25.3537 H   0  0  0  0  0  0  0  0  0  0  0  0
   -2.6725  -14.4617   26.9351 H   0  0  0  0  0  0  0  0  0  0  0  0
   -1.3707  -15.0007   27.9717 H   0  0  0  0  0  0  0  0  0  0  0  0
   -1.1812  -21.8818   28.3593 H   0  0  0  0  0  0  0  0  0  0  0  0
   -2.8869  -23.5840   27.7215 H   0  0  0  0  0  0  0  0  0  0  0  0
   -5.0696  -22.8352   26.7785 H   0  0  0  0  0  0  0  0  0  0  0  0
   -5.7014  -20.4258   26.8936 H   0  0  0  0  0  0  0  0  0  0  0  0
   -4.6351  -17.9420   27.9891 H   0  0  0  0  0  0  0  0  0  0  0  0
   -1.4212  -17.6875   25.6152 H   0  0  0  0  0  0  0  0  0  0  0  0
   -2.5817  -17.8984   25.0868 H   0  0  0  0  0  0  0  0  0  0  0  0
   -1.6091  -15.2555   23.4201 H   0  0  0  0  0  0  0  0  0  0  0  0
   -2.4483  -15.0779   24.6352 H   0  0  0  0  0  0  0  0  0  0  0  0
    6.7392  -10.3145   24.5626 H   0  0  0  0  0  0  0  0  0  0  0  0
    9.2620   -9.7606   24.6795 H   0  0  0  0  0  0  0  0  0  0  0  0
   10.7051  -11.9495   25.0083 H   0  0  0  0  0  0  0  0  0  0  0  0
  1  2  1  0
  2  3  1  0
  3  4  1  0
  4  5  1  0
  5  6  1  0
  6  7  2  0
  6  8  1  0
  8  9  1  0
  9 10  1  0
 10 11  1  0
 11 12  1  0
 12 13  2  0
 13 14  1  0
 14 15  2  0
 15 16  1  0
 16 17  2  0
 17 18  1  0
 18 19  2  0
 19 20  1  0
 11 21  1  0
 21 22  1  0
  4 23  1  0
 23 24  2  0
 24 25  1  0
 25 26  2  0
 26 27  1  0
 22  8  1  0
 27 23  1  0
 20 12  1  0
 19 14  1  0
  1 28  1  0
  1 29  1  0
  1 30  1  0
  2 31  1  0
  2 32  1  0
  3 33  1  0
  3 34  1  0
  4 35  1  0
  5 36  1  0
  8 37  1  0
  9 38  1  0
  9 39  1  0
 10 40  1  0
 10 41  1  0
 15 42  1  0
 16 43  1  0
 17 44  1  0
 18 45  1  0
 20 46  1  0
 21 47  1  0
 21 48  1  0
 22 49  1  0
 22 50  1  0
 24 51  1  0
 25 52  1  0
 26 53  1  0
M  END
>  <Energy>  (213) 
969.70884749612208

>  <compound_id>  (213) 
4858

>  <target_id>  (213) 
1

>  <reference_id>  (213) 
94

>  <inspiration_ids>  (213) 
[94, 66]

>  <energy_score>  (213) 
961.0715221543256

>  <distance_score>  (213) 
12.80774453027261

>  <path>  (213) 
/opt/xchem-fragalysis-2/maxwin/BulkDock/SCRATCH/511016/C4858-P94/C4858-P94.minimised.mol

>  <scratch_subdir>  (213) 
/opt/xchem-fragalysis-2/maxwin/BulkDock/SCRATCH/511016/C4858-P94

>  <fragmenstein_runtime>  (213) 
41.82884359359741

>  <fragmenstein_outcome>  (213) 
too moved

>  <fragmenstein_mode>  (213) 
expansion

>  <fragmenstein_error>  (213) 


$$$$
C4858-P66
     RDKit          3D

 53 56  0  0  0  0  0  0  0  0999 V2000
    6.5267  -14.6517   16.2616 C   0  0  0  0  0  0  0  0  0  0  0  0
    5.2641  -13.9998   16.8044 C   0  0  0  0  0  0  0  0  0  0  0  0
    5.0701  -14.2338   18.3241 C   0  0  0  0  0  0  0  0  0  0  0  0
    4.9361  -12.9410   19.2181 C   0  0  0  0  0  0  0  0  0  0  0  0
    4.4490  -12.8273   20.8390 N   0  0  0  0  0  0  0  0  0  0  0  0
    3.3542  -13.7887   21.7658 C   0  0  0  0  0  0  0  0  0  0  0  0
    2.6627  -14.6982   21.3359 O   0  0  0  0  0  0  0  0  0  0  0  0
    3.1710  -13.6746   23.8419 C   0  0  0  0  0  0  0  0  0  0  0  0
    4.0323  -14.5658   25.4626 C   0  0  0  0  0  0  0  0  0  0  0  0
    3.5899  -15.5077   27.2584 C   0  0  0  0  0  0  0  0  0  0  0  0
    1.6649  -15.6728   27.6724 N   0  0  0  0  0  0  0  0  0  0  0  0
    0.5335  -17.1613   27.8781 C   0  0  0  0  0  0  0  0  0  0  0  0
   -0.0760  -18.1619   26.9137 N   0  0  0  0  0  0  0  0  0  0  0  0
   -1.4045  -19.0848   27.4874 C   0  0  0  0  0  0  0  0  0  0  0  0
   -1.7357  -20.3658   28.0513 C   0  0  0  0  0  0  0  0  0  0  0  0
   -3.0077  -20.6355   28.5854 C   0  0  0  0  0  0  0  0  0  0  0  0
   -3.9450  -19.6239   28.6491 C   0  0  0  0  0  0  0  0  0  0  0  0
   -3.6491  -18.3528   28.1714 C   0  0  0  0  0  0  0  0  0  0  0  0
   -2.3045  -18.1429   27.6628 C   0  0  0  0  0  0  0  0  0  0  0  0
   -1.2709  -17.0659   27.5916 N   0  0  0  0  0  0  0  0  0  0  0  0
    1.5093  -13.9943   26.5430 C   0  0  0  0  0  0  0  0  0  0  0  0
    1.8719  -13.2039   24.7757 C   0  0  0  0  0  0  0  0  0  0  0  0
    6.3370  -12.2031   18.9711 C   0  0  0  0  0  0  0  0  0  0  0  0
    6.6242  -11.2086   18.0338 C   0  0  0  0  0  0  0  0  0  0  0  0
    8.0147  -11.1150   17.7178 C   0  0  0  0  0  0  0  0  0  0  0  0
    8.7901  -11.8920   18.5342 C   0  0  0  0  0  0  0  0  0  0  0  0
    7.8281  -12.8940   19.5127 S   0  0  0  0  0  0  0  0  0  0  0  0
    7.4263  -14.2208   16.7066 H   0  0  0  0  0  0  0  0  0  0  0  0
    6.5282  -15.7282   16.4584 H   0  0  0  0  0  0  0  0  0  0  0  0
    6.5875  -14.5084   15.1780 H   0  0  0  0  0  0  0  0  0  0  0  0
    5.2409  -12.9409   16.5360 H   0  0  0  0  0  0  0  0  0  0  0  0
    4.4131  -14.4488   16.2748 H   0  0  0  0  0  0  0  0  0  0  0  0
    4.1019  -14.7489   18.3415 H   0  0  0  0  0  0  0  0  0  0  0  0
    5.8345  -14.9224   18.7010 H   0  0  0  0  0  0  0  0  0  0  0  0
    4.1486  -12.5013   18.6298 H   0  0  0  0  0  0  0  0  0  0  0  0
    4.8117  -12.1152   21.4053 H   0  0  0  0  0  0  0  0  0  0  0  0
    3.5268  -12.6594   23.8065 H   0  0  0  0  0  0  0  0  0  0  0  0
    4.7086  -13.8029   25.8323 H   0  0  0  0  0  0  0  0  0  0  0  0
    4.6924  -15.2363   24.9136 H   0  0  0  0  0  0  0  0  0  0  0  0
    3.6818  -16.5763   27.2558 H   0  0  0  0  0  0  0  0  0  0  0  0
    4.0015  -14.9114   28.0019 H   0  0  0  0  0  0  0  0  0  0  0  0
   -1.0026  -21.1504   28.1826 H   0  0  0  0  0  0  0  0  0  0  0  0
   -3.2113  -21.5992   29.0389 H   0  0  0  0  0  0  0  0  0  0  0  0
   -4.8524  -19.7244   29.2125 H   0  0  0  0  0  0  0  0  0  0  0  0
   -4.2953  -17.5141   28.3977 H   0  0  0  0  0  0  0  0  0  0  0  0
   -1.1514  -17.3367   26.6636 H   0  0  0  0  0  0  0  0  0  0  0  0
    0.5911  -13.4472   26.6871 H   0  0  0  0  0  0  0  0  0  0  0  0
    2.3343  -13.5715   27.0778 H   0  0  0  0  0  0  0  0  0  0  0  0
    1.0879  -13.7653   24.2091 H   0  0  0  0  0  0  0  0  0  0  0  0
    1.7977  -12.1295   24.7067 H   0  0  0  0  0  0  0  0  0  0  0  0
    5.8494  -10.7056   17.4656 H   0  0  0  0  0  0  0  0  0  0  0  0
    8.4424  -10.5428   16.9058 H   0  0  0  0  0  0  0  0  0  0  0  0
    9.8675  -11.9878   18.5282 H   0  0  0  0  0  0  0  0  0  0  0  0
  1  2  1  0
  2  3  1  0
  3  4  1  0
  4  5  1  0
  5  6  1  0
  6  7  2  0
  6  8  1  0
  8  9  1  0
  9 10  1  0
 10 11  1  0
 11 12  1  0
 12 13  2  0
 13 14  1  0
 14 15  2  0
 15 16  1  0
 16 17  2  0
 17 18  1  0
 18 19  2  0
 19 20  1  0
 11 21  1  0
 21 22  1  0
  4 23  1  0
 23 24  2  0
 24 25  1  0
 25 26  2  0
 26 27  1  0
 22  8  1  0
 27 23  1  0
 20 12  1  0
 19 14  1  0
  1 28  1  0
  1 29  1  0
  1 30  1  0
  2 31  1  0
  2 32  1  0
  3 33  1  0
  3 34  1  0
  4 35  1  0
  5 36  1  0
  8 37  1  0
  9 38  1  0
  9 39  1  0
 10 40  1  0
 10 41  1  0
 15 42  1  0
 16 43  1  0
 17 44  1  0
 18 45  1  0
 20 46  1  0
 21 47  1  0
 21 48  1  0
 22 49  1  0
 22 50  1  0
 24 51  1  0
 25 52  1  0
 26 53  1  0
M  END
>  <Energy>  (214) 
941.57766447927645

>  <compound_id>  (214) 
4858

>  <target_id>  (214) 
1

>  <reference_id>  (214) 
66

>  <inspiration_ids>  (214) 
[94, 66]

>  <energy_score>  (214) 
932.940339137447

>  <distance_score>  (214) 
12.62529009547894

>  <path>  (214) 
/opt/xchem-fragalysis-2/maxwin/BulkDock/SCRATCH/511016/C4858-P66/C4858-P66.minimised.mol

>  <scratch_subdir>  (214) 
/opt/xchem-fragalysis-2/maxwin/BulkDock/SCRATCH/511016/C4858-P66

>  <fragmenstein_runtime>  (214) 
28.394140481948853

>  <fragmenstein_outcome>  (214) 
too moved

>  <fragmenstein_mode>  (214) 
expansion

>  <fragmenstein_error>  (214) 


$$$$
C4859-P94
     RDKit          3D

 47 50  0  0  0  0  0  0  0  0999 V2000
   -1.6026  -12.2138   21.3535 O   0  0  0  0  0  0  0  0  0  0  0  0
   -0.7293  -12.2027   22.2608 C   0  0  0  0  0  0  0  0  0  0  0  0
    0.2545  -10.9871   22.4264 N   0  0  0  0  0  0  0  0  0  0  0  0
    0.3673   -9.4754   21.6499 C   0  0  0  0  0  0  0  0  0  0  0  0
   -0.1445   -8.6679   20.4111 C   0  0  0  0  0  0  0  0  0  0  0  0
    0.9896   -7.8062   19.7214 C   0  0  0  0  0  0  0  0  0  0  0  0
    1.3730   -7.7702   18.3863 C   0  0  0  0  0  0  0  0  0  0  0  0
    2.4863   -6.9053   18.1257 C   0  0  0  0  0  0  0  0  0  0  0  0
    2.9180   -6.2717   19.2661 C   0  0  0  0  0  0  0  0  0  0  0  0
    1.9699   -6.6999   20.6283 S   0  0  0  0  0  0  0  0  0  0  0  0
   -0.6427  -13.9922   23.6358 C   0  0  0  0  0  0  0  0  0  0  0  0
   -1.5539  -15.6647   24.3776 C   0  0  0  0  0  0  0  0  0  0  0  0
   -1.3887  -17.5761   25.4834 C   0  0  0  0  0  0  0  0  0  0  0  0
   -2.4812  -18.3351   25.4371 N   0  0  0  0  0  0  0  0  0  0  0  0
   -3.5690  -19.7465   24.8881 C   0  0  0  0  0  0  0  0  0  0  0  0
   -3.2072  -20.7113   23.8892 N   0  0  0  0  0  0  0  0  0  0  0  0
   -4.1036  -21.8019   23.8426 C   0  0  0  0  0  0  0  0  0  0  0  0
   -4.1060  -22.9042   22.9850 C   0  0  0  0  0  0  0  0  0  0  0  0
   -5.1949  -23.7495   23.0573 C   0  0  0  0  0  0  0  0  0  0  0  0
   -6.1119  -23.5705   24.0789 C   0  0  0  0  0  0  0  0  0  0  0  0
   -5.9549  -22.6371   25.0998 C   0  0  0  0  0  0  0  0  0  0  0  0
   -5.0859  -21.6105   24.8012 C   0  0  0  0  0  0  0  0  0  0  0  0
   -4.9381  -20.3054   25.2833 N   0  0  0  0  0  0  0  0  0  0  0  0
   -2.8289  -16.5322   25.5573 C   0  0  0  0  0  0  0  0  0  0  0  0
   -1.8613  -14.7033   25.1987 C   0  0  0  0  0  0  0  0  0  0  0  0
    0.9141  -11.2325   23.1469 H   0  0  0  0  0  0  0  0  0  0  0  0
    0.0897   -8.8005   22.4725 H   0  0  0  0  0  0  0  0  0  0  0  0
    1.4338   -9.3762   21.4592 H   0  0  0  0  0  0  0  0  0  0  0  0
   -0.8735   -7.9311   20.7824 H   0  0  0  0  0  0  0  0  0  0  0  0
   -0.7221   -9.2339   19.6825 H   0  0  0  0  0  0  0  0  0  0  0  0
    0.8878   -8.3707   17.6258 H   0  0  0  0  0  0  0  0  0  0  0  0
    2.9376   -6.7661   17.1512 H   0  0  0  0  0  0  0  0  0  0  0  0
    3.7307   -5.5665   19.3694 H   0  0  0  0  0  0  0  0  0  0  0  0
   -0.4341  -14.5039   22.6655 H   0  0  0  0  0  0  0  0  0  0  0  0
   -1.2671  -15.6563   23.3965 H   0  0  0  0  0  0  0  0  0  0  0  0
   -2.6600  -15.5761   23.8694 H   0  0  0  0  0  0  0  0  0  0  0  0
   -0.4693  -18.1564   25.6917 H   0  0  0  0  0  0  0  0  0  0  0  0
   -1.3488  -17.5922   26.6548 H   0  0  0  0  0  0  0  0  0  0  0  0
   -3.3471  -23.0002   22.2185 H   0  0  0  0  0  0  0  0  0  0  0  0
   -5.3265  -24.5409   22.3270 H   0  0  0  0  0  0  0  0  0  0  0  0
   -6.9897  -24.1858   24.0913 H   0  0  0  0  0  0  0  0  0  0  0  0
   -6.6122  -22.6141   25.9579 H   0  0  0  0  0  0  0  0  0  0  0  0
   -5.5385  -19.8191   25.9399 H   0  0  0  0  0  0  0  0  0  0  0  0
   -3.6975  -16.1331   25.0570 H   0  0  0  0  0  0  0  0  0  0  0  0
   -2.7642  -16.6923   26.7127 H   0  0  0  0  0  0  0  0  0  0  0  0
   -1.6701  -14.5981   26.2728 H   0  0  0  0  0  0  0  0  0  0  0  0
   -2.3849  -13.7608   25.4592 H   0  0  0  0  0  0  0  0  0  0  0  0
  1  2  2  0
  2  3  1  0
  3  4  1  0
  4  5  1  0
  5  6  1  0
  6  7  2  0
  7  8  1  0
  8  9  2  0
  9 10  1  0
  2 11  1  0
 11 12  1  0
 12 13  1  0
 13 14  1  0
 14 15  1  0
 15 16  2  0
 16 17  1  0
 17 18  2  0
 18 19  1  0
 19 20  2  0
 20 21  1  0
 21 22  2  0
 22 23  1  0
 14 24  1  0
 24 25  1  0
 10  6  1  0
 25 11  1  0
 23 15  1  0
 22 17  1  0
  3 26  1  0
  4 27  1  0
  4 28  1  0
  5 29  1  0
  5 30  1  0
  7 31  1  0
  8 32  1  0
  9 33  1  0
 11 34  1  0
 12 35  1  0
 12 36  1  0
 13 37  1  0
 13 38  1  0
 18 39  1  0
 19 40  1  0
 20 41  1  0
 21 42  1  0
 23 43  1  0
 24 44  1  0
 24 45  1  0
 25 46  1  0
 25 47  1  0
M  END
>  <Energy>  (215) 
1302.4188778327937

>  <compound_id>  (215) 
4859

>  <target_id>  (215) 
1

>  <reference_id>  (215) 
94

>  <inspiration_ids>  (215) 
[94, 66]

>  <energy_score>  (215) 
1276.9009779803434

>  <distance_score>  (215) 
12.446100238757378

>  <path>  (215) 
/opt/xchem-fragalysis-2/maxwin/BulkDock/SCRATCH/511016/C4859-P94/C4859-P94.minimised.mol

>  <scratch_subdir>  (215) 
/opt/xchem-fragalysis-2/maxwin/BulkDock/SCRATCH/511016/C4859-P94

>  <fragmenstein_runtime>  (215) 
47.347525119781494

>  <fragmenstein_outcome>  (215) 
too moved

>  <fragmenstein_mode>  (215) 
expansion

>  <fragmenstein_error>  (215) 


$$$$
C4859-P66
     RDKit          3D

 47 50  0  0  0  0  0  0  0  0999 V2000
   -1.3358  -14.8708   23.4064 O   0  0  0  0  0  0  0  0  0  0  0  0
   -0.9436  -15.1305   24.4856 C   0  0  0  0  0  0  0  0  0  0  0  0
    0.6780  -14.0099   25.0275 N   0  0  0  0  0  0  0  0  0  0  0  0
    1.7923  -12.6799   24.0756 C   0  0  0  0  0  0  0  0  0  0  0  0
    3.1899  -12.0349   23.0988 C   0  0  0  0  0  0  0  0  0  0  0  0
    4.0892  -10.3285   22.6379 C   0  0  0  0  0  0  0  0  0  0  0  0
    5.5159  -10.0247   22.6710 C   0  0  0  0  0  0  0  0  0  0  0  0
    5.9720   -8.7095   22.2888 C   0  0  0  0  0  0  0  0  0  0  0  0
    4.9779   -7.8263   21.9774 C   0  0  0  0  0  0  0  0  0  0  0  0
    3.3812   -8.4366   22.1439 S   0  0  0  0  0  0  0  0  0  0  0  0
   -2.0908  -16.9082   25.3103 C   0  0  0  0  0  0  0  0  0  0  0  0
   -1.0822  -18.2813   26.5626 C   0  0  0  0  0  0  0  0  0  0  0  0
   -1.2888  -19.9968   27.7816 C   0  0  0  0  0  0  0  0  0  0  0  0
   -2.6619  -20.4326   29.0115 N   0  0  0  0  0  0  0  0  0  0  0  0
   -4.3157  -21.6371   29.3452 C   0  0  0  0  0  0  0  0  0  0  0  0
   -5.2237  -20.7848   30.8460 N   0  0  0  0  0  0  0  0  0  0  0  0
   -7.1353  -21.5055   31.2274 C   0  0  0  0  0  0  0  0  0  0  0  0
   -7.7105  -22.7133   32.5507 C   0  0  0  0  0  0  0  0  0  0  0  0
   -8.7812  -24.0690   31.9492 C   0  0  0  0  0  0  0  0  0  0  0  0
   -9.1327  -24.4943   30.2524 C   0  0  0  0  0  0  0  0  0  0  0  0
   -8.6366  -23.5439   28.7844 C   0  0  0  0  0  0  0  0  0  0  0  0
   -7.3325  -22.2245   29.1029 C   0  0  0  0  0  0  0  0  0  0  0  0
   -5.7441  -22.0403   28.2199 N   0  0  0  0  0  0  0  0  0  0  0  0
   -2.8029  -19.1565   27.3171 C   0  0  0  0  0  0  0  0  0  0  0  0
   -2.4983  -17.2914   27.0606 C   0  0  0  0  0  0  0  0  0  0  0  0
    0.9231  -14.2227   26.0231 H   0  0  0  0  0  0  0  0  0  0  0  0
    2.3531  -13.5774   23.7916 H   0  0  0  0  0  0  0  0  0  0  0  0
    1.2555  -11.9207   23.4726 H   0  0  0  0  0  0  0  0  0  0  0  0
    3.7866  -12.4834   23.8478 H   0  0  0  0  0  0  0  0  0  0  0  0
    3.4308  -12.7571   22.3198 H   0  0  0  0  0  0  0  0  0  0  0  0
    6.2560  -10.7464   22.9862 H   0  0  0  0  0  0  0  0  0  0  0  0
    7.0205   -8.4363   22.2666 H   0  0  0  0  0  0  0  0  0  0  0  0
    5.0911   -6.7954   21.6747 H   0  0  0  0  0  0  0  0  0  0  0  0
   -2.9944  -16.3448   25.3108 H   0  0  0  0  0  0  0  0  0  0  0  0
   -0.4871  -17.7094   27.3037 H   0  0  0  0  0  0  0  0  0  0  0  0
   -0.1889  -18.5034   26.0215 H   0  0  0  0  0  0  0  0  0  0  0  0
   -0.6528  -20.8639   27.8468 H   0  0  0  0  0  0  0  0  0  0  0  0
   -0.7842  -19.6899   28.7431 H   0  0  0  0  0  0  0  0  0  0  0  0
   -7.9694  -22.2164   33.4933 H   0  0  0  0  0  0  0  0  0  0  0  0
   -9.3201  -24.6335   32.7163 H   0  0  0  0  0  0  0  0  0  0  0  0
   -9.9117  -25.2477   30.1016 H   0  0  0  0  0  0  0  0  0  0  0  0
   -9.1832  -23.5434   27.8469 H   0  0  0  0  0  0  0  0  0  0  0  0
   -5.5407  -22.7938   27.5961 H   0  0  0  0  0  0  0  0  0  0  0  0
   -3.6799  -18.6222   27.6577 H   0  0  0  0  0  0  0  0  0  0  0  0
   -2.6566  -19.5508   26.3194 H   0  0  0  0  0  0  0  0  0  0  0  0
   -1.8518  -16.6801   27.6766 H   0  0  0  0  0  0  0  0  0  0  0  0
   -3.4286  -16.8811   27.4022 H   0  0  0  0  0  0  0  0  0  0  0  0
  1  2  2  0
  2  3  1  0
  3  4  1  0
  4  5  1  0
  5  6  1  0
  6  7  2  0
  7  8  1  0
  8  9  2  0
  9 10  1  0
  2 11  1  0
 11 12  1  0
 12 13  1  0
 13 14  1  0
 14 15  1  0
 15 16  2  0
 16 17  1  0
 17 18  2  0
 18 19  1  0
 19 20  2  0
 20 21  1  0
 21 22  2  0
 22 23  1  0
 14 24  1  0
 24 25  1  0
 10  6  1  0
 25 11  1  0
 23 15  1  0
 22 17  1  0
  3 26  1  0
  4 27  1  0
  4 28  1  0
  5 29  1  0
  5 30  1  0
  7 31  1  0
  8 32  1  0
  9 33  1  0
 11 34  1  0
 12 35  1  0
 12 36  1  0
 13 37  1  0
 13 38  1  0
 18 39  1  0
 19 40  1  0
 20 41  1  0
 21 42  1  0
 23 43  1  0
 24 44  1  0
 24 45  1  0
 25 46  1  0
 25 47  1  0
M  END
>  <Energy>  (216) 
2705.855677646196

>  <compound_id>  (216) 
4859

>  <target_id>  (216) 
1

>  <reference_id>  (216) 
66

>  <inspiration_ids>  (216) 
[94, 66]

>  <energy_score>  (216) 
2680.337777793756

>  <distance_score>  (216) 
11.105713572925715

>  <path>  (216) 
/opt/xchem-fragalysis-2/maxwin/BulkDock/SCRATCH/511016/C4859-P66/C4859-P66.minimised.mol

>  <scratch_subdir>  (216) 
/opt/xchem-fragalysis-2/maxwin/BulkDock/SCRATCH/511016/C4859-P66

>  <fragmenstein_runtime>  (216) 
42.472495317459106

>  <fragmenstein_outcome>  (216) 
too moved

>  <fragmenstein_mode>  (216) 
expansion

>  <fragmenstein_error>  (216) 


$$$$
C4860-P94
     RDKit          3D

 44 47  0  0  0  0  0  0  0  0999 V2000
    1.5879  -16.8885   29.2340 O   0  0  0  0  0  0  0  0  0  0  0  0
    1.2220  -16.0136   28.5012 C   0  0  0  0  0  0  0  0  0  0  0  0
    2.3580  -14.7967   27.5425 N   0  0  0  0  0  0  0  0  0  0  0  0
    3.9992  -14.7257   27.3915 C   0  0  0  0  0  0  0  0  0  0  0  0
    5.1984  -13.1749   27.3911 C   0  0  0  0  0  0  0  0  0  0  0  0
    6.1805  -12.8437   26.3634 C   0  0  0  0  0  0  0  0  0  0  0  0
    7.0622  -11.7281   26.4412 C   0  0  0  0  0  0  0  0  0  0  0  0
    6.7741  -11.0254   27.5627 C   0  0  0  0  0  0  0  0  0  0  0  0
    5.5055  -11.7446   28.4247 S   0  0  0  0  0  0  0  0  0  0  0  0
   -0.8608  -15.7094   28.3903 C   0  0  0  0  0  0  0  0  0  0  0  0
   -2.5348  -15.0877   29.0203 C   0  0  0  0  0  0  0  0  0  0  0  0
   -4.0901  -16.1116   29.7842 C   0  0  0  0  0  0  0  0  0  0  0  0
   -5.5588  -17.2080   29.0893 N   0  0  0  0  0  0  0  0  0  0  0  0
   -7.3627  -17.8694   29.5776 C   0  0  0  0  0  0  0  0  0  0  0  0
   -8.4886  -19.2372   28.8850 N   0  0  0  0  0  0  0  0  0  0  0  0
   -9.9266  -20.3265   30.1304 C   0  0  0  0  0  0  0  0  0  0  0  0
  -10.9281  -21.3175   30.0710 C   0  0  0  0  0  0  0  0  0  0  0  0
  -11.5018  -21.6623   31.3054 C   0  0  0  0  0  0  0  0  0  0  0  0
  -11.2700  -20.9685   32.5447 C   0  0  0  0  0  0  0  0  0  0  0  0
  -10.3247  -19.8974   32.8705 C   0  0  0  0  0  0  0  0  0  0  0  0
   -9.4039  -19.4772   31.8902 C   0  0  0  0  0  0  0  0  0  0  0  0
   -7.7562  -18.2226   31.3321 N   0  0  0  0  0  0  0  0  0  0  0  0
   -4.0748  -17.2373   27.5731 C   0  0  0  0  0  0  0  0  0  0  0  0
   -2.1328  -17.0467   27.4942 C   0  0  0  0  0  0  0  0  0  0  0  0
    1.7876  -14.1928   26.9104 H   0  0  0  0  0  0  0  0  0  0  0  0
    4.1124  -14.8802   26.3056 H   0  0  0  0  0  0  0  0  0  0  0  0
    4.2243  -15.6347   27.8989 H   0  0  0  0  0  0  0  0  0  0  0  0
    6.2361  -13.4713   25.5306 H   0  0  0  0  0  0  0  0  0  0  0  0
    7.8244  -11.4689   25.7176 H   0  0  0  0  0  0  0  0  0  0  0  0
    7.2461  -10.1247   27.9290 H   0  0  0  0  0  0  0  0  0  0  0  0
   -0.6574  -15.6000   29.4978 H   0  0  0  0  0  0  0  0  0  0  0  0
   -2.5436  -14.1109   29.4330 H   0  0  0  0  0  0  0  0  0  0  0  0
   -2.5718  -15.0884   27.9350 H   0  0  0  0  0  0  0  0  0  0  0  0
   -3.2831  -16.3552   30.5318 H   0  0  0  0  0  0  0  0  0  0  0  0
   -4.9806  -15.4997   30.1229 H   0  0  0  0  0  0  0  0  0  0  0  0
  -11.1992  -21.8079   29.1435 H   0  0  0  0  0  0  0  0  0  0  0  0
  -12.2578  -22.4534   31.3130 H   0  0  0  0  0  0  0  0  0  0  0  0
  -11.9320  -21.2660   33.3696 H   0  0  0  0  0  0  0  0  0  0  0  0
  -10.4707  -19.3414   33.7816 H   0  0  0  0  0  0  0  0  0  0  0  0
   -7.0019  -18.3865   31.9802 H   0  0  0  0  0  0  0  0  0  0  0  0
   -3.8708  -16.3591   28.0315 H   0  0  0  0  0  0  0  0  0  0  0  0
   -4.5667  -18.2379   27.5024 H   0  0  0  0  0  0  0  0  0  0  0  0
   -1.5538  -17.9096   27.1292 H   0  0  0  0  0  0  0  0  0  0  0  0
   -2.4034  -16.7049   26.5161 H   0  0  0  0  0  0  0  0  0  0  0  0
  1  2  2  0
  2  3  1  0
  3  4  1  0
  4  5  1  0
  5  6  2  0
  6  7  1  0
  7  8  2  0
  8  9  1  0
  2 10  1  0
 10 11  1  0
 11 12  1  0
 12 13  1  0
 13 14  1  0
 14 15  2  0
 15 16  1  0
 16 17  2  0
 17 18  1  0
 18 19  2  0
 19 20  1  0
 20 21  2  0
 21 22  1  0
 13 23  1  0
 23 24  1  0
  9  5  1  0
 24 10  1  0
 22 14  1  0
 21 16  1  0
  3 25  1  0
  4 26  1  0
  4 27  1  0
  6 28  1  0
  7 29  1  0
  8 30  1  0
 10 31  1  0
 11 32  1  0
 11 33  1  0
 12 34  1  0
 12 35  1  0
 17 36  1  0
 18 37  1  0
 19 38  1  0
 20 39  1  0
 22 40  1  0
 23 41  1  0
 23 42  1  0
 24 43  1  0
 24 44  1  0
M  END
>  <Energy>  (217) 
1933.8873114143548

>  <compound_id>  (217) 
4860

>  <target_id>  (217) 
1

>  <reference_id>  (217) 
94

>  <inspiration_ids>  (217) 
[94, 66]

>  <energy_score>  (217) 
1907.0991103927447

>  <distance_score>  (217) 
13.354811581292267

>  <path>  (217) 
/opt/xchem-fragalysis-2/maxwin/BulkDock/SCRATCH/511016/C4860-P94/C4860-P94.minimised.mol

>  <scratch_subdir>  (217) 
/opt/xchem-fragalysis-2/maxwin/BulkDock/SCRATCH/511016/C4860-P94

>  <fragmenstein_runtime>  (217) 
26.155407667160034

>  <fragmenstein_outcome>  (217) 
too moved

>  <fragmenstein_mode>  (217) 
expansion

>  <fragmenstein_error>  (217) 


$$$$
C4860-P66
     RDKit          3D

 44 47  0  0  0  0  0  0  0  0999 V2000
    1.4320  -14.8880   23.3517 O   0  0  0  0  0  0  0  0  0  0  0  0
    0.9168  -14.0344   23.9030 C   0  0  0  0  0  0  0  0  0  0  0  0
    1.8896  -12.5545   23.8814 N   0  0  0  0  0  0  0  0  0  0  0  0
    3.3712  -12.1470   23.0923 C   0  0  0  0  0  0  0  0  0  0  0  0
    4.4332  -10.7867   22.1573 C   0  0  0  0  0  0  0  0  0  0  0  0
    5.4437  -11.0235   21.1527 C   0  0  0  0  0  0  0  0  0  0  0  0
    6.1021   -9.8815   20.5958 C   0  0  0  0  0  0  0  0  0  0  0  0
    5.5483   -8.7254   21.0605 C   0  0  0  0  0  0  0  0  0  0  0  0
    4.2236   -9.0352   22.0770 S   0  0  0  0  0  0  0  0  0  0  0  0
   -0.9525  -14.4789   24.5084 C   0  0  0  0  0  0  0  0  0  0  0  0
   -1.8834  -14.8211   25.8781 C   0  0  0  0  0  0  0  0  0  0  0  0
   -2.1028  -15.1276   27.8961 C   0  0  0  0  0  0  0  0  0  0  0  0
   -3.5230  -16.2393   28.2707 N   0  0  0  0  0  0  0  0  0  0  0  0
   -5.0728  -16.3170   29.2884 C   0  0  0  0  0  0  0  0  0  0  0  0
   -6.0173  -17.1850   29.7412 N   0  0  0  0  0  0  0  0  0  0  0  0
   -6.7181  -16.5864   30.8259 C   0  0  0  0  0  0  0  0  0  0  0  0
   -6.9672  -16.8818   32.1857 C   0  0  0  0  0  0  0  0  0  0  0  0
   -7.8802  -16.0677   32.8996 C   0  0  0  0  0  0  0  0  0  0  0  0
   -8.5528  -15.0180   32.2490 C   0  0  0  0  0  0  0  0  0  0  0  0
   -8.1919  -14.6380   30.9454 C   0  0  0  0  0  0  0  0  0  0  0  0
   -7.1998  -15.4212   30.3522 C   0  0  0  0  0  0  0  0  0  0  0  0
   -6.3463  -15.2610   29.3053 N   0  0  0  0  0  0  0  0  0  0  0  0
   -2.6072  -16.5155   26.8569 C   0  0  0  0  0  0  0  0  0  0  0  0
   -2.4972  -14.6328   25.7981 C   0  0  0  0  0  0  0  0  0  0  0  0
    1.4169  -11.8797   24.4537 H   0  0  0  0  0  0  0  0  0  0  0  0
    3.3166  -12.7418   22.1933 H   0  0  0  0  0  0  0  0  0  0  0  0
    2.8182  -11.2694   23.1770 H   0  0  0  0  0  0  0  0  0  0  0  0
    5.7062  -12.0262   20.8224 H   0  0  0  0  0  0  0  0  0  0  0  0
    6.9086   -9.9292   19.8743 H   0  0  0  0  0  0  0  0  0  0  0  0
    5.8150   -7.7100   20.8055 H   0  0  0  0  0  0  0  0  0  0  0  0
   -1.3373  -15.0002   23.6485 H   0  0  0  0  0  0  0  0  0  0  0  0
   -1.2583  -13.5680   25.5535 H   0  0  0  0  0  0  0  0  0  0  0  0
   -2.3096  -15.9112   24.9295 H   0  0  0  0  0  0  0  0  0  0  0  0
   -1.1632  -15.5300   28.2744 H   0  0  0  0  0  0  0  0  0  0  0  0
   -2.2326  -14.4056   28.6717 H   0  0  0  0  0  0  0  0  0  0  0  0
   -6.5355  -17.7481   32.6765 H   0  0  0  0  0  0  0  0  0  0  0  0
   -8.1215  -16.3159   33.9310 H   0  0  0  0  0  0  0  0  0  0  0  0
   -9.2981  -14.4418   32.7935 H   0  0  0  0  0  0  0  0  0  0  0  0
   -8.5769  -13.7359   30.4851 H   0  0  0  0  0  0  0  0  0  0  0  0
   -6.4451  -14.4726   28.7035 H   0  0  0  0  0  0  0  0  0  0  0  0
   -1.7084  -17.0429   27.2502 H   0  0  0  0  0  0  0  0  0  0  0  0
   -2.8446  -17.2290   26.1207 H   0  0  0  0  0  0  0  0  0  0  0  0
   -2.9714  -13.8024   26.6282 H   0  0  0  0  0  0  0  0  0  0  0  0
   -2.8264  -13.3103   25.6235 H   0  0  0  0  0  0  0  0  0  0  0  0
  1  2  2  0
  2  3  1  0
  3  4  1  0
  4  5  1  0
  5  6  2  0
  6  7  1  0
  7  8  2  0
  8  9  1  0
  2 10  1  0
 10 11  1  0
 11 12  1  0
 12 13  1  0
 13 14  1  0
 14 15  2  0
 15 16  1  0
 16 17  2  0
 17 18  1  0
 18 19  2  0
 19 20  1  0
 20 21  2  0
 21 22  1  0
 13 23  1  0
 23 24  1  0
  9  5  1  0
 24 10  1  0
 22 14  1  0
 21 16  1  0
  3 25  1  0
  4 26  1  0
  4 27  1  0
  6 28  1  0
  7 29  1  0
  8 30  1  0
 10 31  1  0
 11 32  1  0
 11 33  1  0
 12 34  1  0
 12 35  1  0
 17 36  1  0
 18 37  1  0
 19 38  1  0
 20 39  1  0
 22 40  1  0
 23 41  1  0
 23 42  1  0
 24 43  1  0
 24 44  1  0
M  END
>  <Energy>  (218) 
1601.9786587262749

>  <compound_id>  (218) 
4860

>  <target_id>  (218) 
1

>  <reference_id>  (218) 
66

>  <inspiration_ids>  (218) 
[94, 66]

>  <energy_score>  (218) 
1575.190457704685

>  <distance_score>  (218) 
12.437178534647488

>  <path>  (218) 
/opt/xchem-fragalysis-2/maxwin/BulkDock/SCRATCH/511016/C4860-P66/C4860-P66.minimised.mol

>  <scratch_subdir>  (218) 
/opt/xchem-fragalysis-2/maxwin/BulkDock/SCRATCH/511016/C4860-P66

>  <fragmenstein_runtime>  (218) 
21.732110738754272

>  <fragmenstein_outcome>  (218) 
too moved

>  <fragmenstein_mode>  (218) 
expansion

>  <fragmenstein_error>  (218) 


$$$$
C4861-P94
     RDKit          3D

 50 53  0  0  0  0  0  0  0  0999 V2000
    3.1335  -15.3120   23.2995 O   0  0  0  0  0  0  0  0  0  0  0  0
    2.6473  -14.2300   23.3397 C   0  0  0  0  0  0  0  0  0  0  0  0
    3.3940  -12.7261   22.7726 C   0  0  0  0  0  0  0  0  0  0  0  0
    4.4968  -12.5802   21.0846 C   0  0  0  0  0  0  0  0  0  0  0  0
    6.0292  -11.8732   20.4696 C   0  0  0  0  0  0  0  0  0  0  0  0
    6.6808  -10.4890   20.5602 C   0  0  0  0  0  0  0  0  0  0  0  0
    6.3891   -9.2775   19.9392 C   0  0  0  0  0  0  0  0  0  0  0  0
    7.2622   -8.2179   20.3219 C   0  0  0  0  0  0  0  0  0  0  0  0
    8.3736   -8.6871   20.9796 C   0  0  0  0  0  0  0  0  0  0  0  0
    8.2835  -10.3742   21.2441 S   0  0  0  0  0  0  0  0  0  0  0  0
    1.0175  -13.7008   23.8227 N   0  0  0  0  0  0  0  0  0  0  0  0
   -0.6787  -14.6738   24.3502 C   0  0  0  0  0  0  0  0  0  0  0  0
   -2.1331  -15.9619   24.6482 C   0  0  0  0  0  0  0  0  0  0  0  0
   -2.2802  -17.5484   25.8477 C   0  0  0  0  0  0  0  0  0  0  0  0
   -3.4307  -17.3879   27.2059 N   0  0  0  0  0  0  0  0  0  0  0  0
   -5.0313  -18.5198   27.3646 C   0  0  0  0  0  0  0  0  0  0  0  0
   -5.2063  -20.0637   26.4095 N   0  0  0  0  0  0  0  0  0  0  0  0
   -6.4832  -21.3976   26.8742 C   0  0  0  0  0  0  0  0  0  0  0  0
   -6.9664  -22.6795   27.2059 C   0  0  0  0  0  0  0  0  0  0  0  0
   -8.5485  -23.1383   27.8630 C   0  0  0  0  0  0  0  0  0  0  0  0
   -9.7346  -22.4056   28.1267 C   0  0  0  0  0  0  0  0  0  0  0  0
   -9.3969  -21.0161   27.7320 C   0  0  0  0  0  0  0  0  0  0  0  0
   -7.5326  -20.7422   27.4492 C   0  0  0  0  0  0  0  0  0  0  0  0
   -6.2424  -19.7653   26.7509 N   0  0  0  0  0  0  0  0  0  0  0  0
   -2.3037  -15.8081   27.3994 C   0  0  0  0  0  0  0  0  0  0  0  0
   -1.8655  -14.5059   25.8821 C   0  0  0  0  0  0  0  0  0  0  0  0
    2.6714  -11.9220   22.9192 H   0  0  0  0  0  0  0  0  0  0  0  0
    3.8270  -12.6789   23.7249 H   0  0  0  0  0  0  0  0  0  0  0  0
    4.9940  -13.5185   20.9387 H   0  0  0  0  0  0  0  0  0  0  0  0
    3.9021  -12.8576   20.2359 H   0  0  0  0  0  0  0  0  0  0  0  0
    6.8138  -12.5844   20.7463 H   0  0  0  0  0  0  0  0  0  0  0  0
    5.9577  -12.0700   19.3850 H   0  0  0  0  0  0  0  0  0  0  0  0
    5.5304   -9.1174   19.3026 H   0  0  0  0  0  0  0  0  0  0  0  0
    7.1015   -7.1784   20.0702 H   0  0  0  0  0  0  0  0  0  0  0  0
    9.2296   -8.1277   21.3302 H   0  0  0  0  0  0  0  0  0  0  0  0
    0.9683  -12.6271   23.8260 H   0  0  0  0  0  0  0  0  0  0  0  0
    0.2558  -14.8912   24.7080 H   0  0  0  0  0  0  0  0  0  0  0  0
   -2.7928  -15.7160   23.8002 H   0  0  0  0  0  0  0  0  0  0  0  0
   -3.0734  -15.6201   25.0054 H   0  0  0  0  0  0  0  0  0  0  0  0
   -1.3629  -17.8055   26.4213 H   0  0  0  0  0  0  0  0  0  0  0  0
   -2.2801  -18.5518   25.4652 H   0  0  0  0  0  0  0  0  0  0  0  0
   -6.1273  -23.3433   27.2843 H   0  0  0  0  0  0  0  0  0  0  0  0
   -8.7856  -24.1479   28.2573 H   0  0  0  0  0  0  0  0  0  0  0  0
  -10.6754  -22.7425   28.5311 H   0  0  0  0  0  0  0  0  0  0  0  0
   -9.9488  -20.6393   28.6603 H   0  0  0  0  0  0  0  0  0  0  0  0
   -5.6435  -20.1287   27.4419 H   0  0  0  0  0  0  0  0  0  0  0  0
   -2.5446  -15.2642   28.2926 H   0  0  0  0  0  0  0  0  0  0  0  0
   -1.4083  -16.2885   27.7097 H   0  0  0  0  0  0  0  0  0  0  0  0
   -1.1557  -13.6690   25.8092 H   0  0  0  0  0  0  0  0  0  0  0  0
   -2.6250  -13.7460   25.8517 H   0  0  0  0  0  0  0  0  0  0  0  0
  1  2  2  0
  2  3  1  0
  3  4  1  0
  4  5  1  0
  5  6  1  0
  6  7  2  0
  7  8  1  0
  8  9  2  0
  9 10  1  0
  2 11  1  0
 11 12  1  0
 12 13  1  0
 13 14  1  0
 14 15  1  0
 15 16  1  0
 16 17  2  0
 17 18  1  0
 18 19  2  0
 19 20  1  0
 20 21  2  0
 21 22  1  0
 22 23  2  0
 23 24  1  0
 15 25  1  0
 25 26  1  0
 10  6  1  0
 26 12  1  0
 24 16  1  0
 23 18  1  0
  3 27  1  0
  3 28  1  0
  4 29  1  0
  4 30  1  0
  5 31  1  0
  5 32  1  0
  7 33  1  0
  8 34  1  0
  9 35  1  0
 11 36  1  0
 12 37  1  0
 13 38  1  0
 13 39  1  0
 14 40  1  0
 14 41  1  0
 19 42  1  0
 20 43  1  0
 21 44  1  0
 22 45  1  0
 24 46  1  0
 25 47  1  0
 25 48  1  0
 26 49  1  0
 26 50  1  0
M  END
>  <Energy>  (219) 
1859.4922009103771

>  <compound_id>  (219) 
4861

>  <target_id>  (219) 
1

>  <reference_id>  (219) 
94

>  <inspiration_ids>  (219) 
[94, 66]

>  <energy_score>  (219) 
1839.8534298724137

>  <distance_score>  (219) 
10.01353014324921

>  <path>  (219) 
/opt/xchem-fragalysis-2/maxwin/BulkDock/SCRATCH/511016/C4861-P94/C4861-P94.minimised.mol

>  <scratch_subdir>  (219) 
/opt/xchem-fragalysis-2/maxwin/BulkDock/SCRATCH/511016/C4861-P94

>  <fragmenstein_runtime>  (219) 
33.16660118103027

>  <fragmenstein_outcome>  (219) 
too moved

>  <fragmenstein_mode>  (219) 
expansion

>  <fragmenstein_error>  (219) 


$$$$
C4861-P66
     RDKit          3D

 50 53  0  0  0  0  0  0  0  0999 V2000
    1.4463  -14.9696   23.3300 O   0  0  0  0  0  0  0  0  0  0  0  0
    0.7345  -14.1673   23.9219 C   0  0  0  0  0  0  0  0  0  0  0  0
    1.7777  -12.5045   24.1631 C   0  0  0  0  0  0  0  0  0  0  0  0
    3.1927  -12.2053   23.1912 C   0  0  0  0  0  0  0  0  0  0  0  0
    4.3328  -10.8136   22.5064 C   0  0  0  0  0  0  0  0  0  0  0  0
    5.8277  -10.1135   22.7018 C   0  0  0  0  0  0  0  0  0  0  0  0
    6.1765   -8.8872   23.2699 C   0  0  0  0  0  0  0  0  0  0  0  0
    7.4613   -8.3825   22.8751 C   0  0  0  0  0  0  0  0  0  0  0  0
    8.0898   -9.2097   21.9819 C   0  0  0  0  0  0  0  0  0  0  0  0
    7.1404  -10.5733   21.6132 S   0  0  0  0  0  0  0  0  0  0  0  0
   -1.0258  -14.5331   24.6487 N   0  0  0  0  0  0  0  0  0  0  0  0
   -2.1354  -16.2686   24.8225 C   0  0  0  0  0  0  0  0  0  0  0  0
   -1.8955  -18.3193   25.1472 C   0  0  0  0  0  0  0  0  0  0  0  0
   -2.4595  -20.2263   24.3985 C   0  0  0  0  0  0  0  0  0  0  0  0
   -3.6204  -19.7741   25.1914 N   0  0  0  0  0  0  0  0  0  0  0  0
   -4.8784  -20.2718   25.1989 C   0  0  0  0  0  0  0  0  0  0  0  0
   -5.4978  -20.7333   24.1810 N   0  0  0  0  0  0  0  0  0  0  0  0
   -5.8390  -21.8717   24.7047 C   0  0  0  0  0  0  0  0  0  0  0  0
   -6.2482  -22.9566   23.9815 C   0  0  0  0  0  0  0  0  0  0  0  0
   -7.0949  -23.5271   24.7992 C   0  0  0  0  0  0  0  0  0  0  0  0
   -7.2081  -23.0984   26.1903 C   0  0  0  0  0  0  0  0  0  0  0  0
   -6.3711  -22.4768   27.0335 C   0  0  0  0  0  0  0  0  0  0  0  0
   -5.9028  -21.6626   26.1248 C   0  0  0  0  0  0  0  0  0  0  0  0
   -5.7571  -20.3351   26.1873 N   0  0  0  0  0  0  0  0  0  0  0  0
   -2.5737  -19.0952   26.7123 C   0  0  0  0  0  0  0  0  0  0  0  0
   -2.3300  -17.1679   26.6733 C   0  0  0  0  0  0  0  0  0  0  0  0
    2.2953  -13.1235   24.8710 H   0  0  0  0  0  0  0  0  0  0  0  0
    1.5809  -11.7949   24.9345 H   0  0  0  0  0  0  0  0  0  0  0  0
    3.2681  -12.9515   22.4268 H   0  0  0  0  0  0  0  0  0  0  0  0
    3.7340  -12.6820   23.9508 H   0  0  0  0  0  0  0  0  0  0  0  0
    4.6599  -11.3814   21.6250 H   0  0  0  0  0  0  0  0  0  0  0  0
    3.6716   -9.9388   22.5083 H   0  0  0  0  0  0  0  0  0  0  0  0
    5.5267   -8.2996   23.8987 H   0  0  0  0  0  0  0  0  0  0  0  0
    7.8815   -7.4452   23.2191 H   0  0  0  0  0  0  0  0  0  0  0  0
    9.0562   -9.0735   21.5153 H   0  0  0  0  0  0  0  0  0  0  0  0
   -1.3623  -13.7215   25.1614 H   0  0  0  0  0  0  0  0  0  0  0  0
   -3.1220  -15.8367   24.7466 H   0  0  0  0  0  0  0  0  0  0  0  0
   -1.4810  -19.1467   23.8703 H   0  0  0  0  0  0  0  0  0  0  0  0
   -2.8306  -17.9376   25.2150 H   0  0  0  0  0  0  0  0  0  0  0  0
   -2.6468  -20.3694   23.3339 H   0  0  0  0  0  0  0  0  0  0  0  0
   -1.8988  -21.1518   24.4211 H   0  0  0  0  0  0  0  0  0  0  0  0
   -6.2503  -23.0555   22.9079 H   0  0  0  0  0  0  0  0  0  0  0  0
   -7.8816  -24.0863   24.3201 H   0  0  0  0  0  0  0  0  0  0  0  0
   -8.1564  -23.2743   26.6895 H   0  0  0  0  0  0  0  0  0  0  0  0
   -6.6347  -22.2411   28.0241 H   0  0  0  0  0  0  0  0  0  0  0  0
   -5.9325  -19.6738   26.9307 H   0  0  0  0  0  0  0  0  0  0  0  0
   -1.4703  -19.1807   26.6551 H   0  0  0  0  0  0  0  0  0  0  0  0
   -2.1991  -19.8616   27.3677 H   0  0  0  0  0  0  0  0  0  0  0  0
   -1.4116  -17.1490   27.2708 H   0  0  0  0  0  0  0  0  0  0  0  0
   -3.0696  -16.7922   27.3648 H   0  0  0  0  0  0  0  0  0  0  0  0
  1  2  2  0
  2  3  1  0
  3  4  1  0
  4  5  1  0
  5  6  1  0
  6  7  2  0
  7  8  1  0
  8  9  2  0
  9 10  1  0
  2 11  1  0
 11 12  1  0
 12 13  1  0
 13 14  1  0
 14 15  1  0
 15 16  1  0
 16 17  2  0
 17 18  1  0
 18 19  2  0
 19 20  1  0
 20 21  2  0
 21 22  1  0
 22 23  2  0
 23 24  1  0
 15 25  1  0
 25 26  1  0
 10  6  1  0
 26 12  1  0
 24 16  1  0
 23 18  1  0
  3 27  1  0
  3 28  1  0
  4 29  1  0
  4 30  1  0
  5 31  1  0
  5 32  1  0
  7 33  1  0
  8 34  1  0
  9 35  1  0
 11 36  1  0
 12 37  1  0
 13 38  1  0
 13 39  1  0
 14 40  1  0
 14 41  1  0
 19 42  1  0
 20 43  1  0
 21 44  1  0
 22 45  1  0
 24 46  1  0
 25 47  1  0
 25 48  1  0
 26 49  1  0
 26 50  1  0
M  END
>  <Energy>  (220) 
1244.3383522906308

>  <compound_id>  (220) 
4861

>  <target_id>  (220) 
1

>  <reference_id>  (220) 
66

>  <inspiration_ids>  (220) 
[94, 66]

>  <energy_score>  (220) 
1224.6995812526861

>  <distance_score>  (220) 
11.206259562739469

>  <path>  (220) 
/opt/xchem-fragalysis-2/maxwin/BulkDock/SCRATCH/511016/C4861-P66/C4861-P66.minimised.mol

>  <scratch_subdir>  (220) 
/opt/xchem-fragalysis-2/maxwin/BulkDock/SCRATCH/511016/C4861-P66

>  <fragmenstein_runtime>  (220) 
26.646796226501465

>  <fragmenstein_outcome>  (220) 
too moved

>  <fragmenstein_mode>  (220) 
expansion

>  <fragmenstein_error>  (220) 


$$$$
C4862-P94
     RDKit          3D

 64 67  0  0  0  0  0  0  0  0999 V2000
    5.5933  -11.0525   28.7842 C   0  0  0  0  0  0  0  0  0  0  0  0
    6.4223  -10.6463   27.6441 C   0  0  0  0  0  0  0  0  0  0  0  0
    7.1185  -11.8569   27.0251 C   0  0  0  0  0  0  0  0  0  0  0  0
    8.2576  -12.4224   27.8827 C   0  0  0  0  0  0  0  0  0  0  0  0
    6.7092  -12.6854   25.8050 N   0  0  0  0  0  0  0  0  0  0  0  0
    5.0107  -13.4059   25.6316 C   0  0  0  0  0  0  0  0  0  0  0  0
    3.2600  -13.3220   24.5247 C   0  0  0  0  0  0  0  0  0  0  0  0
    1.6852  -13.5666   25.5205 N   0  0  0  0  0  0  0  0  0  0  0  0
    1.4243  -14.2714   26.8193 C   0  0  0  0  0  0  0  0  0  0  0  0
    2.3234  -14.7314   27.5076 O   0  0  0  0  0  0  0  0  0  0  0  0
   -0.5136  -14.8476   27.7003 C   0  0  0  0  0  0  0  0  0  0  0  0
   -1.3261  -16.7808   27.5754 C   0  0  0  0  0  0  0  0  0  0  0  0
   -2.9838  -17.0414   27.7708 C   0  0  0  0  0  0  0  0  0  0  0  0
   -3.7039  -16.2886   29.3520 N   0  0  0  0  0  0  0  0  0  0  0  0
   -5.2924  -16.2331   29.8905 C   0  0  0  0  0  0  0  0  0  0  0  0
   -5.9183  -17.2815   30.4392 N   0  0  0  0  0  0  0  0  0  0  0  0
   -6.0612  -17.4668   32.0684 C   0  0  0  0  0  0  0  0  0  0  0  0
   -6.1310  -18.5215   33.0238 C   0  0  0  0  0  0  0  0  0  0  0  0
   -6.8283  -18.3273   34.2140 C   0  0  0  0  0  0  0  0  0  0  0  0
   -7.3429  -17.0776   34.4818 C   0  0  0  0  0  0  0  0  0  0  0  0
   -7.0173  -16.0077   33.6375 C   0  0  0  0  0  0  0  0  0  0  0  0
   -6.1226  -16.2160   32.4781 C   0  0  0  0  0  0  0  0  0  0  0  0
   -5.8914  -15.3918   30.9182 N   0  0  0  0  0  0  0  0  0  0  0  0
   -2.6095  -14.9955   29.2462 C   0  0  0  0  0  0  0  0  0  0  0  0
   -1.9264  -14.7358   27.6540 C   0  0  0  0  0  0  0  0  0  0  0  0
    7.3780  -11.8660   24.5907 C   0  0  0  0  0  0  0  0  0  0  0  0
    8.5544  -10.8045   24.7896 C   0  0  0  0  0  0  0  0  0  0  0  0
    8.4616   -9.4239   24.9519 C   0  0  0  0  0  0  0  0  0  0  0  0
    9.7304   -8.7666   24.9736 C   0  0  0  0  0  0  0  0  0  0  0  0
   10.7674   -9.6547   24.8162 C   0  0  0  0  0  0  0  0  0  0  0  0
   10.2219  -11.2781   24.7341 S   0  0  0  0  0  0  0  0  0  0  0  0
    5.2715  -12.0792   28.6148 H   0  0  0  0  0  0  0  0  0  0  0  0
    4.7237  -10.3990   28.8518 H   0  0  0  0  0  0  0  0  0  0  0  0
    6.1636  -10.9999   29.7176 H   0  0  0  0  0  0  0  0  0  0  0  0
    7.1705   -9.9298   28.0204 H   0  0  0  0  0  0  0  0  0  0  0  0
    5.8584  -10.0532   26.9346 H   0  0  0  0  0  0  0  0  0  0  0  0
    7.7992  -11.1760   26.5816 H   0  0  0  0  0  0  0  0  0  0  0  0
    8.0821  -12.3176   28.9572 H   0  0  0  0  0  0  0  0  0  0  0  0
    9.1952  -11.8792   27.7021 H   0  0  0  0  0  0  0  0  0  0  0  0
    8.4492  -13.4584   27.6190 H   0  0  0  0  0  0  0  0  0  0  0  0
    5.2183  -12.4444   25.1782 H   0  0  0  0  0  0  0  0  0  0  0  0
    5.2075  -14.4231   25.3012 H   0  0  0  0  0  0  0  0  0  0  0  0
    3.3846  -14.2406   23.9346 H   0  0  0  0  0  0  0  0  0  0  0  0
    3.0451  -12.5837   23.7493 H   0  0  0  0  0  0  0  0  0  0  0  0
    0.8033  -13.3625   25.1113 H   0  0  0  0  0  0  0  0  0  0  0  0
   -0.2608  -15.2800   28.7436 H   0  0  0  0  0  0  0  0  0  0  0  0
   -1.4215  -17.4935   26.6803 H   0  0  0  0  0  0  0  0  0  0  0  0
   -0.5005  -17.5389   27.6880 H   0  0  0  0  0  0  0  0  0  0  0  0
   -3.6981  -16.9386   27.0510 H   0  0  0  0  0  0  0  0  0  0  0  0
   -3.0217  -18.0929   27.5681 H   0  0  0  0  0  0  0  0  0  0  0  0
   -5.7872  -19.5259   32.7899 H   0  0  0  0  0  0  0  0  0  0  0  0
   -6.9731  -19.1622   34.8886 H   0  0  0  0  0  0  0  0  0  0  0  0
   -7.9759  -16.9162   35.3489 H   0  0  0  0  0  0  0  0  0  0  0  0
   -7.5275  -15.0641   33.8287 H   0  0  0  0  0  0  0  0  0  0  0  0
   -6.2013  -14.4385   30.7748 H   0  0  0  0  0  0  0  0  0  0  0  0
   -3.0928  -14.0946   29.6010 H   0  0  0  0  0  0  0  0  0  0  0  0
   -3.0129  -15.3689   28.3870 H   0  0  0  0  0  0  0  0  0  0  0  0
   -2.1398  -15.3739   26.8461 H   0  0  0  0  0  0  0  0  0  0  0  0
   -2.5348  -14.2574   26.8387 H   0  0  0  0  0  0  0  0  0  0  0  0
    7.8887  -12.6212   24.0178 H   0  0  0  0  0  0  0  0  0  0  0  0
    6.6043  -11.3587   24.0162 H   0  0  0  0  0  0  0  0  0  0  0  0
    7.5122   -8.9054   25.0120 H   0  0  0  0  0  0  0  0  0  0  0  0
    9.8626   -7.6956   25.0678 H   0  0  0  0  0  0  0  0  0  0  0  0
   11.8265   -9.4396   24.7867 H   0  0  0  0  0  0  0  0  0  0  0  0
  1  2  1  0
  2  3  1  0
  3  4  1  0
  3  5  1  0
  5  6  1  0
  6  7  1  0
  7  8  1  0
  8  9  1  0
  9 10  2  0
  9 11  1  0
 11 12  1  0
 12 13  1  0
 13 14  1  0
 14 15  1  0
 15 16  2  0
 16 17  1  0
 17 18  2  0
 18 19  1  0
 19 20  2  0
 20 21  1  0
 21 22  2  0
 22 23  1  0
 14 24  1  0
 24 25  1  0
  5 26  1  0
 26 27  1  0
 27 28  2  0
 28 29  1  0
 29 30  2  0
 30 31  1  0
 25 11  1  0
 31 27  1  0
 23 15  1  0
 22 17  1  0
  1 32  1  0
  1 33  1  0
  1 34  1  0
  2 35  1  0
  2 36  1  0
  3 37  1  0
  4 38  1  0
  4 39  1  0
  4 40  1  0
  6 41  1  0
  6 42  1  0
  7 43  1  0
  7 44  1  0
  8 45  1  0
 11 46  1  0
 12 47  1  0
 12 48  1  0
 13 49  1  0
 13 50  1  0
 18 51  1  0
 19 52  1  0
 20 53  1  0
 21 54  1  0
 23 55  1  0
 24 56  1  0
 24 57  1  0
 25 58  1  0
 25 59  1  0
 26 60  1  0
 26 61  1  0
 28 62  1  0
 29 63  1  0
 30 64  1  0
M  END
>  <Energy>  (221) 
1094.6869329786266

>  <compound_id>  (221) 
4862

>  <target_id>  (221) 
1

>  <reference_id>  (221) 
94

>  <inspiration_ids>  (221) 
[94, 66]

>  <energy_score>  (221) 
1001.3958165880024

>  <distance_score>  (221) 
11.723208037630727

>  <path>  (221) 
/opt/xchem-fragalysis-2/maxwin/BulkDock/SCRATCH/511016/C4862-P94/C4862-P94.minimised.mol

>  <scratch_subdir>  (221) 
/opt/xchem-fragalysis-2/maxwin/BulkDock/SCRATCH/511016/C4862-P94

>  <fragmenstein_runtime>  (221) 
78.86709570884705

>  <fragmenstein_outcome>  (221) 
too moved

>  <fragmenstein_mode>  (221) 
expansion

>  <fragmenstein_error>  (221) 


$$$$
C4862-P66
     RDKit          3D

 64 67  0  0  0  0  0  0  0  0999 V2000
    7.6011  -12.2721   25.7757 C   0  0  0  0  0  0  0  0  0  0  0  0
    7.6680  -11.7028   24.3382 C   0  0  0  0  0  0  0  0  0  0  0  0
    6.3124  -10.9076   23.8019 C   0  0  0  0  0  0  0  0  0  0  0  0
    6.6967   -9.5685   24.7780 C   0  0  0  0  0  0  0  0  0  0  0  0
    5.0137  -10.9355   22.4212 N   0  0  0  0  0  0  0  0  0  0  0  0
    3.4443  -12.0436   22.7451 C   0  0  0  0  0  0  0  0  0  0  0  0
    2.2793  -12.7219   24.1041 C   0  0  0  0  0  0  0  0  0  0  0  0
    1.0833  -13.6418   25.0666 N   0  0  0  0  0  0  0  0  0  0  0  0
    0.4309  -13.4034   26.5710 C   0  0  0  0  0  0  0  0  0  0  0  0
    0.7441  -12.4318   27.0478 O   0  0  0  0  0  0  0  0  0  0  0  0
   -0.7801  -14.7211   27.8661 C   0  0  0  0  0  0  0  0  0  0  0  0
   -1.9803  -15.9975   27.4223 C   0  0  0  0  0  0  0  0  0  0  0  0
   -3.4044  -16.5988   28.0008 C   0  0  0  0  0  0  0  0  0  0  0  0
   -4.2987  -16.2797   29.6009 N   0  0  0  0  0  0  0  0  0  0  0  0
   -5.7801  -16.4315   30.6326 C   0  0  0  0  0  0  0  0  0  0  0  0
   -5.9024  -15.9802   32.0060 N   0  0  0  0  0  0  0  0  0  0  0  0
   -5.8803  -16.7269   33.1918 C   0  0  0  0  0  0  0  0  0  0  0  0
   -5.5626  -16.4549   34.5265 C   0  0  0  0  0  0  0  0  0  0  0  0
   -5.6501  -17.4921   35.4674 C   0  0  0  0  0  0  0  0  0  0  0  0
   -6.0320  -18.7689   35.0827 C   0  0  0  0  0  0  0  0  0  0  0  0
   -6.3626  -19.0211   33.7577 C   0  0  0  0  0  0  0  0  0  0  0  0
   -6.3200  -17.9337   32.8592 C   0  0  0  0  0  0  0  0  0  0  0  0
   -6.6892  -17.6473   31.5120 N   0  0  0  0  0  0  0  0  0  0  0  0
   -3.2423  -15.3761   30.1330 C   0  0  0  0  0  0  0  0  0  0  0  0
   -2.0854  -14.6047   29.2507 C   0  0  0  0  0  0  0  0  0  0  0  0
    5.7073  -11.7911   20.9162 C   0  0  0  0  0  0  0  0  0  0  0  0
    6.4329  -11.6112   19.4846 C   0  0  0  0  0  0  0  0  0  0  0  0
    7.2356  -10.7466   18.7473 C   0  0  0  0  0  0  0  0  0  0  0  0
    7.7642  -11.2605   17.5184 C   0  0  0  0  0  0  0  0  0  0  0  0
    7.2963  -12.5107   17.2532 C   0  0  0  0  0  0  0  0  0  0  0  0
    6.2947  -13.0754   18.4941 S   0  0  0  0  0  0  0  0  0  0  0  0
    7.9426  -11.5417   26.5175 H   0  0  0  0  0  0  0  0  0  0  0  0
    6.6001  -12.5860   26.0743 H   0  0  0  0  0  0  0  0  0  0  0  0
    8.2909  -13.1133   25.8632 H   0  0  0  0  0  0  0  0  0  0  0  0
    8.1721  -12.3671   23.6714 H   0  0  0  0  0  0  0  0  0  0  0  0
    8.4784  -10.9793   24.5058 H   0  0  0  0  0  0  0  0  0  0  0  0
    5.7509  -11.5408   24.4464 H   0  0  0  0  0  0  0  0  0  0  0  0
    6.9375   -9.8801   25.8017 H   0  0  0  0  0  0  0  0  0  0  0  0
    5.9176   -8.8163   24.9522 H   0  0  0  0  0  0  0  0  0  0  0  0
    7.6030   -9.0629   24.4277 H   0  0  0  0  0  0  0  0  0  0  0  0
    3.9711  -12.4189   23.5224 H   0  0  0  0  0  0  0  0  0  0  0  0
    3.4825  -12.7505   21.9246 H   0  0  0  0  0  0  0  0  0  0  0  0
    1.9837  -11.7978   24.4932 H   0  0  0  0  0  0  0  0  0  0  0  0
    3.0569  -13.3683   24.5147 H   0  0  0  0  0  0  0  0  0  0  0  0
    0.6751  -14.4680   24.6972 H   0  0  0  0  0  0  0  0  0  0  0  0
   -0.1187  -15.2758   28.6083 H   0  0  0  0  0  0  0  0  0  0  0  0
   -2.2379  -15.3849   26.5570 H   0  0  0  0  0  0  0  0  0  0  0  0
   -1.4303  -16.9576   27.3303 H   0  0  0  0  0  0  0  0  0  0  0  0
   -4.0285  -16.9883   27.2745 H   0  0  0  0  0  0  0  0  0  0  0  0
   -2.9955  -17.5790   27.8715 H   0  0  0  0  0  0  0  0  0  0  0  0
   -5.2323  -15.4687   34.8306 H   0  0  0  0  0  0  0  0  0  0  0  0
   -5.4006  -17.2911   36.5060 H   0  0  0  0  0  0  0  0  0  0  0  0
   -6.0876  -19.5699   35.8155 H   0  0  0  0  0  0  0  0  0  0  0  0
   -6.6516  -20.0267   33.4833 H   0  0  0  0  0  0  0  0  0  0  0  0
   -7.0829  -18.3405   30.9178 H   0  0  0  0  0  0  0  0  0  0  0  0
   -3.8601  -14.5048   30.1070 H   0  0  0  0  0  0  0  0  0  0  0  0
   -2.8379  -15.7613   31.0859 H   0  0  0  0  0  0  0  0  0  0  0  0
   -2.6601  -14.8271   28.4698 H   0  0  0  0  0  0  0  0  0  0  0  0
   -2.5405  -13.6078   29.3913 H   0  0  0  0  0  0  0  0  0  0  0  0
    6.4867  -12.4416   21.3004 H   0  0  0  0  0  0  0  0  0  0  0  0
    4.8701  -12.4468   20.6650 H   0  0  0  0  0  0  0  0  0  0  0  0
    7.5260   -9.7601   19.0140 H   0  0  0  0  0  0  0  0  0  0  0  0
    8.4332  -10.7349   16.8468 H   0  0  0  0  0  0  0  0  0  0  0  0
    7.4977  -13.1258   16.3873 H   0  0  0  0  0  0  0  0  0  0  0  0
  1  2  1  0
  2  3  1  0
  3  4  1  0
  3  5  1  0
  5  6  1  0
  6  7  1  0
  7  8  1  0
  8  9  1  0
  9 10  2  0
  9 11  1  0
 11 12  1  0
 12 13  1  0
 13 14  1  0
 14 15  1  0
 15 16  2  0
 16 17  1  0
 17 18  2  0
 18 19  1  0
 19 20  2  0
 20 21  1  0
 21 22  2  0
 22 23  1  0
 14 24  1  0
 24 25  1  0
  5 26  1  0
 26 27  1  0
 27 28  2  0
 28 29  1  0
 29 30  2  0
 30 31  1  0
 25 11  1  0
 31 27  1  0
 23 15  1  0
 22 17  1  0
  1 32  1  0
  1 33  1  0
  1 34  1  0
  2 35  1  0
  2 36  1  0
  3 37  1  0
  4 38  1  0
  4 39  1  0
  4 40  1  0
  6 41  1  0
  6 42  1  0
  7 43  1  0
  7 44  1  0
  8 45  1  0
 11 46  1  0
 12 47  1  0
 12 48  1  0
 13 49  1  0
 13 50  1  0
 18 51  1  0
 19 52  1  0
 20 53  1  0
 21 54  1  0
 23 55  1  0
 24 56  1  0
 24 57  1  0
 25 58  1  0
 25 59  1  0
 26 60  1  0
 26 61  1  0
 28 62  1  0
 29 63  1  0
 30 64  1  0
M  END
>  <Energy>  (222) 
1213.9917012001388

>  <compound_id>  (222) 
4862

>  <target_id>  (222) 
1

>  <reference_id>  (222) 
66

>  <inspiration_ids>  (222) 
[94, 66]

>  <energy_score>  (222) 
1120.7005848095148

>  <distance_score>  (222) 
11.191032843288161

>  <path>  (222) 
/opt/xchem-fragalysis-2/maxwin/BulkDock/SCRATCH/511016/C4862-P66/C4862-P66.minimised.mol

>  <scratch_subdir>  (222) 
/opt/xchem-fragalysis-2/maxwin/BulkDock/SCRATCH/511016/C4862-P66

>  <fragmenstein_runtime>  (222) 
53.79613542556763

>  <fragmenstein_outcome>  (222) 
too moved

>  <fragmenstein_mode>  (222) 
expansion

>  <fragmenstein_error>  (222) 


$$$$
C4863-P94
     RDKit          3D

 39 42  0  0  0  0  0  0  0  0999 V2000
    4.1740  -14.7650   25.7324 O   0  0  0  0  0  0  0  0  0  0  0  0
    3.9515  -14.7212   26.9763 C   0  0  0  0  0  0  0  0  0  0  0  0
    5.1141  -13.2868   27.3968 C   0  0  0  0  0  0  0  0  0  0  0  0
    6.1021  -12.7975   26.4052 C   0  0  0  0  0  0  0  0  0  0  0  0
    7.0770  -11.7863   26.6061 C   0  0  0  0  0  0  0  0  0  0  0  0
    6.8080  -11.2173   27.7995 C   0  0  0  0  0  0  0  0  0  0  0  0
    5.4094  -11.8979   28.4575 S   0  0  0  0  0  0  0  0  0  0  0  0
    2.8811  -16.3548   27.6521 C   0  0  0  0  0  0  0  0  0  0  0  0
    1.2666  -16.7608   28.4442 C   0  0  0  0  0  0  0  0  0  0  0  0
   -0.1777  -17.7635   27.6961 C   0  0  0  0  0  0  0  0  0  0  0  0
   -0.9291  -19.2737   27.2009 N   0  0  0  0  0  0  0  0  0  0  0  0
   -0.7647  -20.4162   28.5872 C   0  0  0  0  0  0  0  0  0  0  0  0
   -0.2540  -20.1572   29.8434 N   0  0  0  0  0  0  0  0  0  0  0  0
   -0.6933  -21.1727   30.7015 C   0  0  0  0  0  0  0  0  0  0  0  0
   -0.9420  -21.1876   32.0791 C   0  0  0  0  0  0  0  0  0  0  0  0
   -1.4487  -22.3616   32.6486 C   0  0  0  0  0  0  0  0  0  0  0  0
   -1.6405  -23.5061   31.8728 C   0  0  0  0  0  0  0  0  0  0  0  0
   -1.3909  -23.5109   30.4961 C   0  0  0  0  0  0  0  0  0  0  0  0
   -0.9514  -22.2998   29.9673 C   0  0  0  0  0  0  0  0  0  0  0  0
   -0.5746  -21.8707   28.7180 N   0  0  0  0  0  0  0  0  0  0  0  0
    0.3298  -18.6961   26.2413 C   0  0  0  0  0  0  0  0  0  0  0  0
    2.1882  -17.8176   26.6560 C   0  0  0  0  0  0  0  0  0  0  0  0
    5.9841  -13.1818   25.4511 H   0  0  0  0  0  0  0  0  0  0  0  0
    7.8327  -11.4665   25.9009 H   0  0  0  0  0  0  0  0  0  0  0  0
    7.3059  -10.3870   28.2809 H   0  0  0  0  0  0  0  0  0  0  0  0
    3.6920  -16.9113   28.1187 H   0  0  0  0  0  0  0  0  0  0  0  0
    1.4394  -17.1395   29.4688 H   0  0  0  0  0  0  0  0  0  0  0  0
    0.7388  -15.9403   28.9000 H   0  0  0  0  0  0  0  0  0  0  0  0
   -1.1069  -17.1725   27.6361 H   0  0  0  0  0  0  0  0  0  0  0  0
    0.1646  -18.3660   28.5440 H   0  0  0  0  0  0  0  0  0  0  0  0
   -0.7809  -20.2954   32.6735 H   0  0  0  0  0  0  0  0  0  0  0  0
   -1.6648  -22.3868   33.7145 H   0  0  0  0  0  0  0  0  0  0  0  0
   -1.9572  -24.4151   32.3752 H   0  0  0  0  0  0  0  0  0  0  0  0
   -1.5343  -24.3960   29.8897 H   0  0  0  0  0  0  0  0  0  0  0  0
   -0.1018  -22.4573   28.0707 H   0  0  0  0  0  0  0  0  0  0  0  0
   -0.4735  -18.0438   25.8380 H   0  0  0  0  0  0  0  0  0  0  0  0
    0.5888  -19.0201   25.1971 H   0  0  0  0  0  0  0  0  0  0  0  0
    2.6765  -17.7763   25.6589 H   0  0  0  0  0  0  0  0  0  0  0  0
    2.9920  -18.5358   26.8141 H   0  0  0  0  0  0  0  0  0  0  0  0
  1  2  2  0
  2  3  1  0
  3  4  2  0
  4  5  1  0
  5  6  2  0
  6  7  1  0
  2  8  1  0
  8  9  1  0
  9 10  1  0
 10 11  1  0
 11 12  1  0
 12 13  2  0
 13 14  1  0
 14 15  2  0
 15 16  1  0
 16 17  2  0
 17 18  1  0
 18 19  2  0
 19 20  1  0
 11 21  1  0
 21 22  1  0
  7  3  1  0
 22  8  1  0
 20 12  1  0
 19 14  1  0
  4 23  1  0
  5 24  1  0
  6 25  1  0
  8 26  1  0
  9 27  1  0
  9 28  1  0
 10 29  1  0
 10 30  1  0
 15 31  1  0
 16 32  1  0
 17 33  1  0
 18 34  1  0
 20 35  1  0
 21 36  1  0
 21 37  1  0
 22 38  1  0
 22 39  1  0
M  END
>  <Energy>  (223) 
809.28727623410236

>  <compound_id>  (223) 
4863

>  <target_id>  (223) 
1

>  <reference_id>  (223) 
94

>  <inspiration_ids>  (223) 
[94, 66]

>  <energy_score>  (223) 
768.2205851265614

>  <distance_score>  (223) 
15.049225915091844

>  <path>  (223) 
/opt/xchem-fragalysis-2/maxwin/BulkDock/SCRATCH/511016/C4863-P94/C4863-P94.minimised.mol

>  <scratch_subdir>  (223) 
/opt/xchem-fragalysis-2/maxwin/BulkDock/SCRATCH/511016/C4863-P94

>  <fragmenstein_runtime>  (223) 
29.238478899002075

>  <fragmenstein_outcome>  (223) 
too moved

>  <fragmenstein_mode>  (223) 
expansion

>  <fragmenstein_error>  (223) 


$$$$
C4863-P66
     RDKit          3D

 39 42  0  0  0  0  0  0  0  0999 V2000
    3.6544  -10.3698   22.5783 O   0  0  0  0  0  0  0  0  0  0  0  0
    4.0148  -11.5560   22.4461 C   0  0  0  0  0  0  0  0  0  0  0  0
    5.2819  -11.2704   21.2875 C   0  0  0  0  0  0  0  0  0  0  0  0
    6.0565  -10.0998   21.2804 C   0  0  0  0  0  0  0  0  0  0  0  0
    6.9518  -10.0085   20.1742 C   0  0  0  0  0  0  0  0  0  0  0  0
    6.8154  -11.0882   19.3347 C   0  0  0  0  0  0  0  0  0  0  0  0
    5.6138  -12.1884   19.8845 S   0  0  0  0  0  0  0  0  0  0  0  0
    3.3344  -12.9973   23.7147 C   0  0  0  0  0  0  0  0  0  0  0  0
    2.0378  -12.7635   24.4261 C   0  0  0  0  0  0  0  0  0  0  0  0
    1.4478  -13.2890   26.1164 C   0  0  0  0  0  0  0  0  0  0  0  0
    2.3314  -14.2601   27.3143 N   0  0  0  0  0  0  0  0  0  0  0  0
    1.5765  -15.6444   28.2076 C   0  0  0  0  0  0  0  0  0  0  0  0
    1.9378  -16.6638   28.9467 N   0  0  0  0  0  0  0  0  0  0  0  0
    1.2424  -16.9404   30.3868 C   0  0  0  0  0  0  0  0  0  0  0  0
    1.4885  -17.7533   31.5370 C   0  0  0  0  0  0  0  0  0  0  0  0
    0.7433  -17.5865   32.7172 C   0  0  0  0  0  0  0  0  0  0  0  0
   -0.1206  -16.5109   32.8428 C   0  0  0  0  0  0  0  0  0  0  0  0
   -0.3179  -15.6515   31.7608 C   0  0  0  0  0  0  0  0  0  0  0  0
    0.2774  -16.0218   30.5147 C   0  0  0  0  0  0  0  0  0  0  0  0
    0.1813  -15.5613   29.0918 N   0  0  0  0  0  0  0  0  0  0  0  0
    3.7359  -14.3865   26.7653 C   0  0  0  0  0  0  0  0  0  0  0  0
    4.0090  -14.2472   25.0539 C   0  0  0  0  0  0  0  0  0  0  0  0
    5.9558   -9.3415   22.0479 H   0  0  0  0  0  0  0  0  0  0  0  0
    7.6432   -9.1948   20.0028 H   0  0  0  0  0  0  0  0  0  0  0  0
    7.3479  -11.2906   18.4147 H   0  0  0  0  0  0  0  0  0  0  0  0
    3.9129  -12.4600   24.3365 H   0  0  0  0  0  0  0  0  0  0  0  0
    1.5593  -12.1352   23.6775 H   0  0  0  0  0  0  0  0  0  0  0  0
    2.0037  -11.7560   24.7439 H   0  0  0  0  0  0  0  0  0  0  0  0
    1.3000  -12.3101   26.5904 H   0  0  0  0  0  0  0  0  0  0  0  0
    0.4218  -13.4209   26.2156 H   0  0  0  0  0  0  0  0  0  0  0  0
    2.2914  -18.4801   31.5612 H   0  0  0  0  0  0  0  0  0  0  0  0
    0.9281  -18.2374   33.5676 H   0  0  0  0  0  0  0  0  0  0  0  0
   -0.6278  -16.3190   33.7849 H   0  0  0  0  0  0  0  0  0  0  0  0
   -0.9429  -14.7846   31.8594 H   0  0  0  0  0  0  0  0  0  0  0  0
   -0.5455  -14.9099   28.8393 H   0  0  0  0  0  0  0  0  0  0  0  0
    4.0097  -15.3910   27.0609 H   0  0  0  0  0  0  0  0  0  0  0  0
    4.3896  -13.6919   27.2954 H   0  0  0  0  0  0  0  0  0  0  0  0
    4.2748  -15.1553   24.5001 H   0  0  0  0  0  0  0  0  0  0  0  0
    5.0163  -14.0160   25.3898 H   0  0  0  0  0  0  0  0  0  0  0  0
  1  2  2  0
  2  3  1  0
  3  4  2  0
  4  5  1  0
  5  6  2  0
  6  7  1  0
  2  8  1  0
  8  9  1  0
  9 10  1  0
 10 11  1  0
 11 12  1  0
 12 13  2  0
 13 14  1  0
 14 15  2  0
 15 16  1  0
 16 17  2  0
 17 18  1  0
 18 19  2  0
 19 20  1  0
 11 21  1  0
 21 22  1  0
  7  3  1  0
 22  8  1  0
 20 12  1  0
 19 14  1  0
  4 23  1  0
  5 24  1  0
  6 25  1  0
  8 26  1  0
  9 27  1  0
  9 28  1  0
 10 29  1  0
 10 30  1  0
 15 31  1  0
 16 32  1  0
 17 33  1  0
 18 34  1  0
 20 35  1  0
 21 36  1  0
 21 37  1  0
 22 38  1  0
 22 39  1  0
M  END
>  <Energy>  (224) 
542.54893255231616

>  <compound_id>  (224) 
4863

>  <target_id>  (224) 
1

>  <reference_id>  (224) 
66

>  <inspiration_ids>  (224) 
[94, 66]

>  <energy_score>  (224) 
501.48224144475876

>  <distance_score>  (224) 
14.32231259033322

>  <path>  (224) 
/opt/xchem-fragalysis-2/maxwin/BulkDock/SCRATCH/511016/C4863-P66/C4863-P66.minimised.mol

>  <scratch_subdir>  (224) 
/opt/xchem-fragalysis-2/maxwin/BulkDock/SCRATCH/511016/C4863-P66

>  <fragmenstein_runtime>  (224) 
22.114818572998047

>  <fragmenstein_outcome>  (224) 
too moved

>  <fragmenstein_mode>  (224) 
expansion

>  <fragmenstein_error>  (224) 


$$$$
C4864-P94
     RDKit          3D

 42 45  0  0  0  0  0  0  0  0999 V2000
    5.3738   -8.9372   26.2633 O   0  0  0  0  0  0  0  0  0  0  0  0
    5.5662   -8.8472   24.8143 S   0  0  0  0  0  0  0  0  0  0  0  0
    5.9697   -7.5167   24.3130 O   0  0  0  0  0  0  0  0  0  0  0  0
    4.0604  -10.0646   23.3325 N   0  0  0  0  0  0  0  0  0  0  0  0
    2.6096  -11.6533   23.8643 C   0  0  0  0  0  0  0  0  0  0  0  0
    2.6668  -13.1692   24.2803 C   0  0  0  0  0  0  0  0  0  0  0  0
    1.2798  -13.6998   25.5460 C   0  0  0  0  0  0  0  0  0  0  0  0
    0.4973  -13.5498   26.7927 N   0  0  0  0  0  0  0  0  0  0  0  0
   -0.8076  -14.6504   27.6162 C   0  0  0  0  0  0  0  0  0  0  0  0
   -0.7387  -15.5660   28.7238 N   0  0  0  0  0  0  0  0  0  0  0  0
   -1.9136  -16.3171   28.8942 C   0  0  0  0  0  0  0  0  0  0  0  0
   -2.2281  -17.3466   29.8103 C   0  0  0  0  0  0  0  0  0  0  0  0
   -3.4715  -18.0023   29.7328 C   0  0  0  0  0  0  0  0  0  0  0  0
   -4.3942  -17.6459   28.7542 C   0  0  0  0  0  0  0  0  0  0  0  0
   -4.0957  -16.6303   27.8349 C   0  0  0  0  0  0  0  0  0  0  0  0
   -2.8476  -15.9778   27.9431 C   0  0  0  0  0  0  0  0  0  0  0  0
   -2.2329  -14.9806   27.2056 N   0  0  0  0  0  0  0  0  0  0  0  0
    1.2959  -11.8438   27.0376 C   0  0  0  0  0  0  0  0  0  0  0  0
    1.5797  -11.5976   25.5678 C   0  0  0  0  0  0  0  0  0  0  0  0
    7.3278   -9.6161   24.9203 C   0  0  0  0  0  0  0  0  0  0  0  0
    8.5070   -8.9430   25.2290 C   0  0  0  0  0  0  0  0  0  0  0  0
    9.6366   -9.8023   25.2074 C   0  0  0  0  0  0  0  0  0  0  0  0
    9.2580  -11.1166   25.0333 C   0  0  0  0  0  0  0  0  0  0  0  0
    7.5486  -11.2952   24.8982 S   0  0  0  0  0  0  0  0  0  0  0  0
    3.1984   -9.4130   23.1448 H   0  0  0  0  0  0  0  0  0  0  0  0
    1.9572  -11.7537   23.0279 H   0  0  0  0  0  0  0  0  0  0  0  0
    3.5929  -13.6011   24.6819 H   0  0  0  0  0  0  0  0  0  0  0  0
    2.7102  -13.8509   23.4382 H   0  0  0  0  0  0  0  0  0  0  0  0
    2.0760  -13.9897   26.2291 H   0  0  0  0  0  0  0  0  0  0  0  0
    0.6463  -14.2105   24.7819 H   0  0  0  0  0  0  0  0  0  0  0  0
   -1.5026  -17.6237   30.5675 H   0  0  0  0  0  0  0  0  0  0  0  0
   -3.7169  -18.7841   30.4491 H   0  0  0  0  0  0  0  0  0  0  0  0
   -5.3558  -18.1531   28.7173 H   0  0  0  0  0  0  0  0  0  0  0  0
   -4.8164  -16.3616   27.0724 H   0  0  0  0  0  0  0  0  0  0  0  0
   -2.5578  -14.6126   26.3426 H   0  0  0  0  0  0  0  0  0  0  0  0
    2.0268  -11.5243   27.8544 H   0  0  0  0  0  0  0  0  0  0  0  0
    0.6411  -11.0244   27.5148 H   0  0  0  0  0  0  0  0  0  0  0  0
    0.5711  -11.6311   25.6544 H   0  0  0  0  0  0  0  0  0  0  0  0
    2.0824  -10.7756   26.1311 H   0  0  0  0  0  0  0  0  0  0  0  0
    8.5351   -7.8716   25.3971 H   0  0  0  0  0  0  0  0  0  0  0  0
   10.6627   -9.4884   25.3551 H   0  0  0  0  0  0  0  0  0  0  0  0
    9.8898  -11.9947   24.9979 H   0  0  0  0  0  0  0  0  0  0  0  0
  1  2  2  0
  2  3  2  0
  2  4  1  0
  4  5  1  0
  5  6  1  0
  6  7  1  0
  7  8  1  0
  8  9  1  0
  9 10  2  0
 10 11  1  0
 11 12  2  0
 12 13  1  0
 13 14  2  0
 14 15  1  0
 15 16  2  0
 16 17  1  0
  8 18  1  0
 18 19  1  0
  2 20  1  0
 20 21  2  0
 21 22  1  0
 22 23  2  0
 23 24  1  0
 19  5  1  0
 24 20  1  0
 17  9  1  0
 16 11  1  0
  4 25  1  0
  5 26  1  0
  6 27  1  0
  6 28  1  0
  7 29  1  0
  7 30  1  0
 12 31  1  0
 13 32  1  0
 14 33  1  0
 15 34  1  0
 17 35  1  0
 18 36  1  0
 18 37  1  0
 19 38  1  0
 19 39  1  0
 21 40  1  0
 22 41  1  0
 23 42  1  0
M  END
>  <Energy>  (225) 
830.01550489989847

>  <compound_id>  (225) 
4864

>  <target_id>  (225) 
1

>  <reference_id>  (225) 
94

>  <inspiration_ids>  (225) 
[94, 66]

>  <energy_score>  (225) 
820.9331815763643

>  <distance_score>  (225) 
13.117004088293962

>  <path>  (225) 
/opt/xchem-fragalysis-2/maxwin/BulkDock/SCRATCH/511016/C4864-P94/C4864-P94.minimised.mol

>  <scratch_subdir>  (225) 
/opt/xchem-fragalysis-2/maxwin/BulkDock/SCRATCH/511016/C4864-P94

>  <fragmenstein_runtime>  (225) 
27.754594802856445

>  <fragmenstein_outcome>  (225) 
too moved

>  <fragmenstein_mode>  (225) 
expansion

>  <fragmenstein_error>  (225) 


$$$$
C4864-P66
     RDKit          3D

 42 45  0  0  0  0  0  0  0  0999 V2000
    5.2280   -8.6728   26.1256 O   0  0  0  0  0  0  0  0  0  0  0  0
    5.2486   -8.7461   24.6471 S   0  0  0  0  0  0  0  0  0  0  0  0
    5.1344   -7.3801   24.0749 O   0  0  0  0  0  0  0  0  0  0  0  0
    3.5776  -10.0637   23.3491 N   0  0  0  0  0  0  0  0  0  0  0  0
    2.2974  -11.6756   24.1242 C   0  0  0  0  0  0  0  0  0  0  0  0
    2.4898  -13.1347   23.9517 C   0  0  0  0  0  0  0  0  0  0  0  0
    0.7889  -14.1373   23.9510 C   0  0  0  0  0  0  0  0  0  0  0  0
   -0.8935  -14.2976   24.4533 N   0  0  0  0  0  0  0  0  0  0  0  0
   -2.2093  -15.2600   25.0262 C   0  0  0  0  0  0  0  0  0  0  0  0
   -3.1423  -16.1066   24.5202 N   0  0  0  0  0  0  0  0  0  0  0  0
   -3.8141  -16.9113   25.4939 C   0  0  0  0  0  0  0  0  0  0  0  0
   -4.7093  -17.9962   25.3447 C   0  0  0  0  0  0  0  0  0  0  0  0
   -5.2255  -18.6318   26.4868 C   0  0  0  0  0  0  0  0  0  0  0  0
   -4.8923  -18.1716   27.7589 C   0  0  0  0  0  0  0  0  0  0  0  0
   -4.0233  -17.0830   27.9237 C   0  0  0  0  0  0  0  0  0  0  0  0
   -3.5003  -16.4902   26.7626 C   0  0  0  0  0  0  0  0  0  0  0  0
   -2.6783  -15.3805   26.5538 N   0  0  0  0  0  0  0  0  0  0  0  0
   -0.7703  -13.2332   25.6274 C   0  0  0  0  0  0  0  0  0  0  0  0
    1.1025  -12.2451   25.7730 C   0  0  0  0  0  0  0  0  0  0  0  0
    7.0872   -9.2983   24.8250 C   0  0  0  0  0  0  0  0  0  0  0  0
    8.1386   -8.4917   25.2642 C   0  0  0  0  0  0  0  0  0  0  0  0
    9.3466   -9.2194   25.4327 C   0  0  0  0  0  0  0  0  0  0  0  0
    9.1306  -10.5745   25.3071 C   0  0  0  0  0  0  0  0  0  0  0  0
    7.4742  -10.9506   25.0054 S   0  0  0  0  0  0  0  0  0  0  0  0
    2.8269   -9.3556   23.0372 H   0  0  0  0  0  0  0  0  0  0  0  0
    1.5768  -11.6691   23.3047 H   0  0  0  0  0  0  0  0  0  0  0  0
    3.0411  -13.2642   23.0393 H   0  0  0  0  0  0  0  0  0  0  0  0
    3.2280  -13.5955   24.6108 H   0  0  0  0  0  0  0  0  0  0  0  0
    0.8535  -14.0559   24.9812 H   0  0  0  0  0  0  0  0  0  0  0  0
    1.3574  -14.8392   23.4068 H   0  0  0  0  0  0  0  0  0  0  0  0
   -4.9824  -18.3349   24.3511 H   0  0  0  0  0  0  0  0  0  0  0  0
   -5.8892  -19.4823   26.3767 H   0  0  0  0  0  0  0  0  0  0  0  0
   -5.3109  -18.6498   28.6431 H   0  0  0  0  0  0  0  0  0  0  0  0
   -3.7804  -16.7100   28.9140 H   0  0  0  0  0  0  0  0  0  0  0  0
   -2.2235  -14.9312   27.3216 H   0  0  0  0  0  0  0  0  0  0  0  0
   -1.4552  -12.3128   25.6630 H   0  0  0  0  0  0  0  0  0  0  0  0
   -1.9191  -13.1929   25.5415 H   0  0  0  0  0  0  0  0  0  0  0  0
    1.0339  -11.5264   26.5922 H   0  0  0  0  0  0  0  0  0  0  0  0
    1.5670  -13.1188   26.2683 H   0  0  0  0  0  0  0  0  0  0  0  0
    8.0273   -7.4203   25.3889 H   0  0  0  0  0  0  0  0  0  0  0  0
   10.3048   -8.7849   25.6917 H   0  0  0  0  0  0  0  0  0  0  0  0
    9.8473  -11.3773   25.4210 H   0  0  0  0  0  0  0  0  0  0  0  0
  1  2  2  0
  2  3  2  0
  2  4  1  0
  4  5  1  0
  5  6  1  0
  6  7  1  0
  7  8  1  0
  8  9  1  0
  9 10  2  0
 10 11  1  0
 11 12  2  0
 12 13  1  0
 13 14  2  0
 14 15  1  0
 15 16  2  0
 16 17  1  0
  8 18  1  0
 18 19  1  0
  2 20  1  0
 20 21  2  0
 21 22  1  0
 22 23  2  0
 23 24  1  0
 19  5  1  0
 24 20  1  0
 17  9  1  0
 16 11  1  0
  4 25  1  0
  5 26  1  0
  6 27  1  0
  6 28  1  0
  7 29  1  0
  7 30  1  0
 12 31  1  0
 13 32  1  0
 14 33  1  0
 15 34  1  0
 17 35  1  0
 18 36  1  0
 18 37  1  0
 19 38  1  0
 19 39  1  0
 21 40  1  0
 22 41  1  0
 23 42  1  0
M  END
>  <Energy>  (226) 
924.17728387262525

>  <compound_id>  (226) 
4864

>  <target_id>  (226) 
1

>  <reference_id>  (226) 
66

>  <inspiration_ids>  (226) 
[94, 66]

>  <energy_score>  (226) 
915.0949605490636

>  <distance_score>  (226) 
12.891588657452576

>  <path>  (226) 
/opt/xchem-fragalysis-2/maxwin/BulkDock/SCRATCH/511016/C4864-P66/C4864-P66.minimised.mol

>  <scratch_subdir>  (226) 
/opt/xchem-fragalysis-2/maxwin/BulkDock/SCRATCH/511016/C4864-P66

>  <fragmenstein_runtime>  (226) 
23.303574085235596

>  <fragmenstein_outcome>  (226) 
too moved

>  <fragmenstein_mode>  (226) 
expansion

>  <fragmenstein_error>  (226) 


$$$$
C4865-P94
     RDKit          3D

 41 44  0  0  0  0  0  0  0  0999 V2000
   -5.5570  -12.1407   33.7242 O   0  0  0  0  0  0  0  0  0  0  0  0
   -5.6947  -12.6676   32.6530 C   0  0  0  0  0  0  0  0  0  0  0  0
   -6.8854  -13.3540   32.0544 N   0  0  0  0  0  0  0  0  0  0  0  0
   -8.3402  -13.5101   32.5834 C   0  0  0  0  0  0  0  0  0  0  0  0
   -9.3796  -14.6542   32.0838 C   0  0  0  0  0  0  0  0  0  0  0  0
  -10.8918  -14.7301   32.7621 C   0  0  0  0  0  0  0  0  0  0  0  0
  -12.0914  -15.2139   31.9612 N   0  0  0  0  0  0  0  0  0  0  0  0
  -12.3098  -14.6374   30.7115 C   0  0  0  0  0  0  0  0  0  0  0  0
  -11.9296  -15.3894   29.6997 N   0  0  0  0  0  0  0  0  0  0  0  0
  -11.8192  -16.6272   30.2434 C   0  0  0  0  0  0  0  0  0  0  0  0
  -10.6899  -17.9931   29.5984 C   0  0  0  0  0  0  0  0  0  0  0  0
  -10.5925  -19.7703   30.8332 C   0  0  0  0  0  0  0  0  0  0  0  0
  -11.4802  -19.5945   32.5640 C   0  0  0  0  0  0  0  0  0  0  0  0
  -12.6289  -18.1078   33.1484 C   0  0  0  0  0  0  0  0  0  0  0  0
  -12.6844  -16.6183   31.8760 C   0  0  0  0  0  0  0  0  0  0  0  0
   -4.3767  -12.5024   31.7768 C   0  0  0  0  0  0  0  0  0  0  0  0
   -3.1318  -11.7883   32.1690 C   0  0  0  0  0  0  0  0  0  0  0  0
   -2.2394  -11.7934   31.1002 C   0  0  0  0  0  0  0  0  0  0  0  0
   -0.8561  -11.2802   30.9532 C   0  0  0  0  0  0  0  0  0  0  0  0
   -0.2501  -10.6292   29.8830 C   0  0  0  0  0  0  0  0  0  0  0  0
    1.1751  -10.7466   29.9011 C   0  0  0  0  0  0  0  0  0  0  0  0
    1.6406  -11.1267   31.1295 C   0  0  0  0  0  0  0  0  0  0  0  0
    0.3411  -11.5181   32.1733 S   0  0  0  0  0  0  0  0  0  0  0  0
   -2.9166  -12.4843   30.1029 O   0  0  0  0  0  0  0  0  0  0  0  0
   -4.1945  -12.9406   30.5210 N   0  0  0  0  0  0  0  0  0  0  0  0
   -6.6739  -13.6115   31.0931 H   0  0  0  0  0  0  0  0  0  0  0  0
   -8.2398  -13.5934   33.6715 H   0  0  0  0  0  0  0  0  0  0  0  0
   -8.8046  -12.5377   32.3837 H   0  0  0  0  0  0  0  0  0  0  0  0
   -9.4784  -14.5485   30.9990 H   0  0  0  0  0  0  0  0  0  0  0  0
   -8.8846  -15.6027   32.2927 H   0  0  0  0  0  0  0  0  0  0  0  0
  -11.1772  -13.7065   33.0367 H   0  0  0  0  0  0  0  0  0  0  0  0
  -10.8637  -15.3164   33.6856 H   0  0  0  0  0  0  0  0  0  0  0  0
  -12.5291  -13.5802   30.6362 H   0  0  0  0  0  0  0  0  0  0  0  0
  -10.3532  -17.7369   28.5884 H   0  0  0  0  0  0  0  0  0  0  0  0
  -10.4888  -20.7818   30.4046 H   0  0  0  0  0  0  0  0  0  0  0  0
  -11.4809  -20.4720   33.2156 H   0  0  0  0  0  0  0  0  0  0  0  0
  -12.7784  -17.8686   34.2036 H   0  0  0  0  0  0  0  0  0  0  0  0
   -2.9688  -11.3415   33.1397 H   0  0  0  0  0  0  0  0  0  0  0  0
   -0.7813  -10.2861   29.0120 H   0  0  0  0  0  0  0  0  0  0  0  0
    1.8208  -10.5339   29.0596 H   0  0  0  0  0  0  0  0  0  0  0  0
    2.6648  -11.2431   31.4572 H   0  0  0  0  0  0  0  0  0  0  0  0
  1  2  2  0
  2  3  1  0
  3  4  1  0
  4  5  1  0
  5  6  1  0
  6  7  1  0
  7  8  1  0
  8  9  2  0
  9 10  1  0
 10 11  2  0
 11 12  1  0
 12 13  2  0
 13 14  1  0
 14 15  2  0
  2 16  1  0
 16 17  1  0
 17 18  2  0
 18 19  1  0
 19 20  2  0
 20 21  1  0
 21 22  2  0
 22 23  1  0
 18 24  1  0
 24 25  1  0
 15  7  1  0
 25 16  2  0
 15 10  1  0
 23 19  1  0
  3 26  1  0
  4 27  1  0
  4 28  1  0
  5 29  1  0
  5 30  1  0
  6 31  1  0
  6 32  1  0
  8 33  1  0
 11 34  1  0
 12 35  1  0
 13 36  1  0
 14 37  1  0
 17 38  1  0
 20 39  1  0
 21 40  1  0
 22 41  1  0
M  END
>  <Energy>  (227) 
741.93881973980422

>  <compound_id>  (227) 
4865

>  <target_id>  (227) 
1

>  <reference_id>  (227) 
94

>  <inspiration_ids>  (227) 
[94, 66]

>  <energy_score>  (227) 
679.8336921390861

>  <distance_score>  (227) 
16.407476465364763

>  <path>  (227) 
/opt/xchem-fragalysis-2/maxwin/BulkDock/SCRATCH/511016/C4865-P94/C4865-P94.minimised.mol

>  <scratch_subdir>  (227) 
/opt/xchem-fragalysis-2/maxwin/BulkDock/SCRATCH/511016/C4865-P94

>  <fragmenstein_runtime>  (227) 
26.13830804824829

>  <fragmenstein_outcome>  (227) 
too moved

>  <fragmenstein_mode>  (227) 
expansion

>  <fragmenstein_error>  (227) 


$$$$
C4865-P66
     RDKit          3D

 41 44  0  0  0  0  0  0  0  0999 V2000
    3.7274  -12.0886   22.0564 O   0  0  0  0  0  0  0  0  0  0  0  0
    3.3325  -11.4975   23.0240 C   0  0  0  0  0  0  0  0  0  0  0  0
    1.9269  -12.1932   24.1352 N   0  0  0  0  0  0  0  0  0  0  0  0
    0.8287  -13.9402   24.0899 C   0  0  0  0  0  0  0  0  0  0  0  0
   -1.1417  -14.1761   24.8154 C   0  0  0  0  0  0  0  0  0  0  0  0
   -2.7533  -15.2566   25.0045 C   0  0  0  0  0  0  0  0  0  0  0  0
   -3.2293  -16.5065   25.6695 N   0  0  0  0  0  0  0  0  0  0  0  0
   -2.9433  -17.7979   25.2614 C   0  0  0  0  0  0  0  0  0  0  0  0
   -3.6810  -18.7204   25.8312 N   0  0  0  0  0  0  0  0  0  0  0  0
   -4.5676  -18.0339   26.5957 C   0  0  0  0  0  0  0  0  0  0  0  0
   -5.6293  -18.5538   27.3483 C   0  0  0  0  0  0  0  0  0  0  0  0
   -6.4542  -17.6792   28.0479 C   0  0  0  0  0  0  0  0  0  0  0  0
   -6.2295  -16.3069   27.9777 C   0  0  0  0  0  0  0  0  0  0  0  0
   -5.1748  -15.7658   27.2170 C   0  0  0  0  0  0  0  0  0  0  0  0
   -4.3349  -16.6544   26.5266 C   0  0  0  0  0  0  0  0  0  0  0  0
    4.5280   -9.7584   23.3561 C   0  0  0  0  0  0  0  0  0  0  0  0
    5.6065   -8.6196   24.6674 C   0  0  0  0  0  0  0  0  0  0  0  0
    5.9975   -6.9907   23.9027 C   0  0  0  0  0  0  0  0  0  0  0  0
    7.2117   -5.6427   23.2991 C   0  0  0  0  0  0  0  0  0  0  0  0
    7.9904   -4.7477   22.3164 C   0  0  0  0  0  0  0  0  0  0  0  0
    9.2257   -4.0680   22.7881 C   0  0  0  0  0  0  0  0  0  0  0  0
    8.9798   -3.6390   24.0430 C   0  0  0  0  0  0  0  0  0  0  0  0
    7.2765   -3.4848   23.7780 S   0  0  0  0  0  0  0  0  0  0  0  0
    4.6622   -7.1199   23.5900 O   0  0  0  0  0  0  0  0  0  0  0  0
    4.0961   -8.2144   22.9746 N   0  0  0  0  0  0  0  0  0  0  0  0
    1.8063  -11.6011   24.9243 H   0  0  0  0  0  0  0  0  0  0  0  0
    0.9325  -13.7755   25.2058 H   0  0  0  0  0  0  0  0  0  0  0  0
    0.1186  -13.9513   23.2267 H   0  0  0  0  0  0  0  0  0  0  0  0
   -1.5483  -13.1817   25.0652 H   0  0  0  0  0  0  0  0  0  0  0  0
   -1.3811  -13.9951   25.8847 H   0  0  0  0  0  0  0  0  0  0  0  0
   -3.3347  -14.5124   25.5796 H   0  0  0  0  0  0  0  0  0  0  0  0
   -3.3250  -15.2643   24.0706 H   0  0  0  0  0  0  0  0  0  0  0  0
   -2.1921  -18.0326   24.5262 H   0  0  0  0  0  0  0  0  0  0  0  0
   -5.7831  -19.6214   27.3538 H   0  0  0  0  0  0  0  0  0  0  0  0
   -7.2630  -18.0644   28.6572 H   0  0  0  0  0  0  0  0  0  0  0  0
   -6.8770  -15.6325   28.5360 H   0  0  0  0  0  0  0  0  0  0  0  0
   -5.0211  -14.6915   27.1874 H   0  0  0  0  0  0  0  0  0  0  0  0
    6.4601   -9.1393   25.1070 H   0  0  0  0  0  0  0  0  0  0  0  0
    7.9799   -4.7916   21.2408 H   0  0  0  0  0  0  0  0  0  0  0  0
   10.1008   -3.8579   22.1898 H   0  0  0  0  0  0  0  0  0  0  0  0
    9.5669   -3.0244   24.7098 H   0  0  0  0  0  0  0  0  0  0  0  0
  1  2  2  0
  2  3  1  0
  3  4  1  0
  4  5  1  0
  5  6  1  0
  6  7  1  0
  7  8  1  0
  8  9  2  0
  9 10  1  0
 10 11  2  0
 11 12  1  0
 12 13  2  0
 13 14  1  0
 14 15  2  0
  2 16  1  0
 16 17  1  0
 17 18  2  0
 18 19  1  0
 19 20  2  0
 20 21  1  0
 21 22  2  0
 22 23  1  0
 18 24  1  0
 24 25  1  0
 15  7  1  0
 25 16  2  0
 15 10  1  0
 23 19  1  0
  3 26  1  0
  4 27  1  0
  4 28  1  0
  5 29  1  0
  5 30  1  0
  6 31  1  0
  6 32  1  0
  8 33  1  0
 11 34  1  0
 12 35  1  0
 13 36  1  0
 14 37  1  0
 17 38  1  0
 20 39  1  0
 21 40  1  0
 22 41  1  0
M  END
>  <Energy>  (228) 
1155.6763214183754

>  <compound_id>  (228) 
4865

>  <target_id>  (228) 
1

>  <reference_id>  (228) 
66

>  <inspiration_ids>  (228) 
[94, 66]

>  <energy_score>  (228) 
1093.571193817633

>  <distance_score>  (228) 
11.604057575728664

>  <path>  (228) 
/opt/xchem-fragalysis-2/maxwin/BulkDock/SCRATCH/511016/C4865-P66/C4865-P66.minimised.mol

>  <scratch_subdir>  (228) 
/opt/xchem-fragalysis-2/maxwin/BulkDock/SCRATCH/511016/C4865-P66

>  <fragmenstein_runtime>  (228) 
28.193687915802002

>  <fragmenstein_outcome>  (228) 
too moved

>  <fragmenstein_mode>  (228) 
expansion

>  <fragmenstein_error>  (228) 


$$$$
C4867-P94
     RDKit          3D

 48 50  0  0  0  0  0  0  0  0999 V2000
   -4.9329  -12.7220   29.9644 C   0  0  0  0  0  0  0  0  0  0  0  0
   -3.3495  -12.8672   29.5027 C   0  0  0  0  0  0  0  0  0  0  0  0
   -2.5889  -14.5419   29.2439 N   0  0  0  0  0  0  0  0  0  0  0  0
   -1.1478  -14.9744   28.2301 C   0  0  0  0  0  0  0  0  0  0  0  0
    0.1443  -13.8069   26.9721 C   0  0  0  0  0  0  0  0  0  0  0  0
    1.6551  -13.2951   25.9064 N   0  0  0  0  0  0  0  0  0  0  0  0
    2.7322  -13.0506   24.3030 C   0  0  0  0  0  0  0  0  0  0  0  0
    3.8776  -14.1672   23.8974 C   0  0  0  0  0  0  0  0  0  0  0  0
    5.2162  -14.0541   23.0941 C   0  0  0  0  0  0  0  0  0  0  0  0
    5.4227  -15.3056   22.2194 C   0  0  0  0  0  0  0  0  0  0  0  0
    6.4337  -13.9523   24.0236 C   0  0  0  0  0  0  0  0  0  0  0  0
    3.7477  -11.6887   23.5096 C   0  0  0  0  0  0  0  0  0  0  0  0
    4.9456  -11.0082   23.8398 C   0  0  0  0  0  0  0  0  0  0  0  0
    5.4378  -10.0763   22.8620 C   0  0  0  0  0  0  0  0  0  0  0  0
    4.6773  -10.0758   21.7257 C   0  0  0  0  0  0  0  0  0  0  0  0
    3.4002  -11.2009   21.8144 S   0  0  0  0  0  0  0  0  0  0  0  0
   -0.9878  -15.3656   29.8646 N   0  0  0  0  0  0  0  0  0  0  0  0
   -2.4796  -15.9027   30.8278 C   0  0  0  0  0  0  0  0  0  0  0  0
   -2.9984  -16.9308   31.9155 C   0  0  0  0  0  0  0  0  0  0  0  0
   -4.3591  -17.4202   32.1800 C   0  0  0  0  0  0  0  0  0  0  0  0
   -5.3832  -17.1500   31.2678 C   0  0  0  0  0  0  0  0  0  0  0  0
   -5.0222  -16.3860   30.1140 C   0  0  0  0  0  0  0  0  0  0  0  0
   -3.4679  -15.7888   29.8953 C   0  0  0  0  0  0  0  0  0  0  0  0
   -5.0379  -12.0637   30.8197 H   0  0  0  0  0  0  0  0  0  0  0  0
   -5.5013  -13.6380   30.1163 H   0  0  0  0  0  0  0  0  0  0  0  0
   -5.5343  -12.1818   29.2303 H   0  0  0  0  0  0  0  0  0  0  0  0
   -2.6183  -12.2983   30.0616 H   0  0  0  0  0  0  0  0  0  0  0  0
   -3.2630  -12.3458   28.5424 H   0  0  0  0  0  0  0  0  0  0  0  0
    0.9919  -14.5256   26.7808 H   0  0  0  0  0  0  0  0  0  0  0  0
   -0.4688  -13.4367   26.0621 H   0  0  0  0  0  0  0  0  0  0  0  0
    2.4378  -13.5039   26.5346 H   0  0  0  0  0  0  0  0  0  0  0  0
    1.9491  -12.4929   23.8603 H   0  0  0  0  0  0  0  0  0  0  0  0
    4.1992  -14.5924   24.8555 H   0  0  0  0  0  0  0  0  0  0  0  0
    3.3375  -14.9178   23.3461 H   0  0  0  0  0  0  0  0  0  0  0  0
    5.2302  -13.2291   22.3873 H   0  0  0  0  0  0  0  0  0  0  0  0
    5.3642  -16.2246   22.8127 H   0  0  0  0  0  0  0  0  0  0  0  0
    6.4009  -15.2806   21.7264 H   0  0  0  0  0  0  0  0  0  0  0  0
    4.6644  -15.3514   21.4318 H   0  0  0  0  0  0  0  0  0  0  0  0
    6.6336  -14.9095   24.5175 H   0  0  0  0  0  0  0  0  0  0  0  0
    6.3023  -13.2045   24.8067 H   0  0  0  0  0  0  0  0  0  0  0  0
    7.3293  -13.6870   23.4512 H   0  0  0  0  0  0  0  0  0  0  0  0
    5.4882  -11.1594   24.7644 H   0  0  0  0  0  0  0  0  0  0  0  0
    6.3253   -9.4693   22.9932 H   0  0  0  0  0  0  0  0  0  0  0  0
    4.8266   -9.4931   20.8273 H   0  0  0  0  0  0  0  0  0  0  0  0
   -2.3177  -17.6865   32.2802 H   0  0  0  0  0  0  0  0  0  0  0  0
   -4.5305  -18.1302   32.9865 H   0  0  0  0  0  0  0  0  0  0  0  0
   -6.3944  -17.5030   31.4246 H   0  0  0  0  0  0  0  0  0  0  0  0
   -5.8620  -15.9547   29.5818 H   0  0  0  0  0  0  0  0  0  0  0  0
  1  2  1  0
  2  3  1  0
  3  4  1  0
  4  5  1  0
  5  6  1  0
  6  7  1  0
  7  8  1  0
  8  9  1  0
  9 10  1  0
  9 11  1  0
  7 12  1  0
 12 13  2  0
 13 14  1  0
 14 15  2  0
 15 16  1  0
  4 17  2  0
 17 18  1  0
 18 19  2  0
 19 20  1  0
 20 21  2  0
 21 22  1  0
 22 23  2  0
 23  3  1  0
 16 12  1  0
 23 18  1  0
  1 24  1  0
  1 25  1  0
  1 26  1  0
  2 27  1  0
  2 28  1  0
  5 29  1  0
  5 30  1  0
  6 31  1  0
  7 32  1  0
  8 33  1  0
  8 34  1  0
  9 35  1  0
 10 36  1  0
 10 37  1  0
 10 38  1  0
 11 39  1  0
 11 40  1  0
 11 41  1  0
 13 42  1  0
 14 43  1  0
 15 44  1  0
 19 45  1  0
 20 46  1  0
 21 47  1  0
 22 48  1  0
M  END
>  <Energy>  (229) 
912.7740092902892

>  <compound_id>  (229) 
4867

>  <target_id>  (229) 
1

>  <reference_id>  (229) 
94

>  <inspiration_ids>  (229) 
[94, 66]

>  <energy_score>  (229) 
833.409014563281

>  <distance_score>  (229) 
14.20125794151599

>  <path>  (229) 
/opt/xchem-fragalysis-2/maxwin/BulkDock/SCRATCH/511016/C4867-P94/C4867-P94.minimised.mol

>  <scratch_subdir>  (229) 
/opt/xchem-fragalysis-2/maxwin/BulkDock/SCRATCH/511016/C4867-P94

>  <fragmenstein_runtime>  (229) 
15.294854402542114

>  <fragmenstein_outcome>  (229) 
too moved

>  <fragmenstein_mode>  (229) 
expansion

>  <fragmenstein_error>  (229) 


$$$$
C4867-P66
     RDKit          3D

 48 50  0  0  0  0  0  0  0  0999 V2000
    1.0118  -16.7998   30.4247 C   0  0  0  0  0  0  0  0  0  0  0  0
    0.9437  -16.1561   29.0296 C   0  0  0  0  0  0  0  0  0  0  0  0
    2.0099  -15.8882   28.0444 N   0  0  0  0  0  0  0  0  0  0  0  0
    3.4425  -15.2222   27.6908 C   0  0  0  0  0  0  0  0  0  0  0  0
    4.0400  -14.2256   26.1720 C   0  0  0  0  0  0  0  0  0  0  0  0
    5.5390  -13.3322   25.5798 N   0  0  0  0  0  0  0  0  0  0  0  0
    5.6621  -13.0171   24.0873 C   0  0  0  0  0  0  0  0  0  0  0  0
    6.7164  -14.0017   23.5001 C   0  0  0  0  0  0  0  0  0  0  0  0
    6.7689  -14.2317   21.9727 C   0  0  0  0  0  0  0  0  0  0  0  0
    7.5659  -13.1763   21.2100 C   0  0  0  0  0  0  0  0  0  0  0  0
    5.3918  -14.4382   21.3465 C   0  0  0  0  0  0  0  0  0  0  0  0
    6.1532  -11.5661   23.7601 C   0  0  0  0  0  0  0  0  0  0  0  0
    7.3556  -10.9382   24.0694 C   0  0  0  0  0  0  0  0  0  0  0  0
    7.5359   -9.6785   23.4099 C   0  0  0  0  0  0  0  0  0  0  0  0
    6.4479   -9.3460   22.6394 C   0  0  0  0  0  0  0  0  0  0  0  0
    5.2177  -10.5345   22.7318 S   0  0  0  0  0  0  0  0  0  0  0  0
    3.9128  -16.4380   27.7790 N   0  0  0  0  0  0  0  0  0  0  0  0
    3.3840  -17.1776   26.7963 C   0  0  0  0  0  0  0  0  0  0  0  0
    3.8056  -18.0732   25.3173 C   0  0  0  0  0  0  0  0  0  0  0  0
    3.3244  -18.9747   24.5880 C   0  0  0  0  0  0  0  0  0  0  0  0
    2.3052  -18.3717   25.0933 C   0  0  0  0  0  0  0  0  0  0  0  0
    1.7671  -17.9640   26.8591 C   0  0  0  0  0  0  0  0  0  0  0  0
    2.2840  -17.0061   27.4125 C   0  0  0  0  0  0  0  0  0  0  0  0
    2.0104  -16.9200   30.7986 H   0  0  0  0  0  0  0  0  0  0  0  0
    0.6020  -17.8134   30.4888 H   0  0  0  0  0  0  0  0  0  0  0  0
    0.4026  -16.1863   31.0758 H   0  0  0  0  0  0  0  0  0  0  0  0
    0.5315  -16.9699   28.4719 H   0  0  0  0  0  0  0  0  0  0  0  0
    0.1157  -15.4517   28.9998 H   0  0  0  0  0  0  0  0  0  0  0  0
    4.4093  -13.7346   27.0831 H   0  0  0  0  0  0  0  0  0  0  0  0
    4.4223  -15.0510   25.6012 H   0  0  0  0  0  0  0  0  0  0  0  0
    5.3828  -12.4259   26.0309 H   0  0  0  0  0  0  0  0  0  0  0  0
    4.6768  -13.1833   23.6403 H   0  0  0  0  0  0  0  0  0  0  0  0
    6.4902  -14.9907   23.9286 H   0  0  0  0  0  0  0  0  0  0  0  0
    7.7230  -13.7615   23.8679 H   0  0  0  0  0  0  0  0  0  0  0  0
    7.3203  -15.1733   21.8373 H   0  0  0  0  0  0  0  0  0  0  0  0
    8.5241  -12.9741   21.6993 H   0  0  0  0  0  0  0  0  0  0  0  0
    7.7832  -13.5293   20.1955 H   0  0  0  0  0  0  0  0  0  0  0  0
    7.0215  -12.2367   21.1072 H   0  0  0  0  0  0  0  0  0  0  0  0
    4.8276  -15.1987   21.8952 H   0  0  0  0  0  0  0  0  0  0  0  0
    5.4887  -14.7791   20.3100 H   0  0  0  0  0  0  0  0  0  0  0  0
    4.8052  -13.5149   21.3344 H   0  0  0  0  0  0  0  0  0  0  0  0
    8.1032  -11.3998   24.7053 H   0  0  0  0  0  0  0  0  0  0  0  0
    8.4209   -9.0611   23.5031 H   0  0  0  0  0  0  0  0  0  0  0  0
    6.3053   -8.4592   22.0384 H   0  0  0  0  0  0  0  0  0  0  0  0
    4.7035  -17.7900   24.6932 H   0  0  0  0  0  0  0  0  0  0  0  0
    3.5824  -19.4362   23.6691 H   0  0  0  0  0  0  0  0  0  0  0  0
    1.3234  -18.8571   24.7129 H   0  0  0  0  0  0  0  0  0  0  0  0
    0.6445  -18.0526   26.9888 H   0  0  0  0  0  0  0  0  0  0  0  0
  1  2  1  0
  2  3  1  0
  3  4  1  0
  4  5  1  0
  5  6  1  0
  6  7  1  0
  7  8  1  0
  8  9  1  0
  9 10  1  0
  9 11  1  0
  7 12  1  0
 12 13  2  0
 13 14  1  0
 14 15  2  0
 15 16  1  0
  4 17  2  0
 17 18  1  0
 18 19  2  0
 19 20  1  0
 20 21  2  0
 21 22  1  0
 22 23  2  0
 23  3  1  0
 16 12  1  0
 23 18  1  0
  1 24  1  0
  1 25  1  0
  1 26  1  0
  2 27  1  0
  2 28  1  0
  5 29  1  0
  5 30  1  0
  6 31  1  0
  7 32  1  0
  8 33  1  0
  8 34  1  0
  9 35  1  0
 10 36  1  0
 10 37  1  0
 10 38  1  0
 11 39  1  0
 11 40  1  0
 11 41  1  0
 13 42  1  0
 14 43  1  0
 15 44  1  0
 19 45  1  0
 20 46  1  0
 21 47  1  0
 22 48  1  0
M  END
>  <Energy>  (230) 
597.56780791941355

>  <compound_id>  (230) 
4867

>  <target_id>  (230) 
1

>  <reference_id>  (230) 
66

>  <inspiration_ids>  (230) 
[94, 66]

>  <energy_score>  (230) 
518.2028131923898

>  <distance_score>  (230) 
15.68556348403502

>  <path>  (230) 
/opt/xchem-fragalysis-2/maxwin/BulkDock/SCRATCH/511016/C4867-P66/C4867-P66.minimised.mol

>  <scratch_subdir>  (230) 
/opt/xchem-fragalysis-2/maxwin/BulkDock/SCRATCH/511016/C4867-P66

>  <fragmenstein_runtime>  (230) 
36.03696584701538

>  <fragmenstein_outcome>  (230) 
too moved

>  <fragmenstein_mode>  (230) 
expansion

>  <fragmenstein_error>  (230) 


$$$$
C4868-P94
     RDKit          3D

 36 38  0  0  0  0  0  0  0  0999 V2000
   -0.8581  -20.7234   32.1295 C   0  0  0  0  0  0  0  0  0  0  0  0
    0.4595  -20.3985   31.6056 N   0  0  0  0  0  0  0  0  0  0  0  0
    1.3321  -21.2994   31.0797 C   0  0  0  0  0  0  0  0  0  0  0  0
    2.4275  -20.7123   30.6355 N   0  0  0  0  0  0  0  0  0  0  0  0
    2.2914  -19.3346   30.8302 C   0  0  0  0  0  0  0  0  0  0  0  0
    3.1341  -18.1769   30.4572 C   0  0  0  0  0  0  0  0  0  0  0  0
    4.2015  -18.0927   29.1974 C   0  0  0  0  0  0  0  0  0  0  0  0
    4.1745  -19.1106   28.5562 O   0  0  0  0  0  0  0  0  0  0  0  0
    4.9574  -16.7917   28.9504 N   0  0  0  0  0  0  0  0  0  0  0  0
    5.8558  -16.3319   27.7261 C   0  0  0  0  0  0  0  0  0  0  0  0
    6.5893  -14.8277   27.6268 C   0  0  0  0  0  0  0  0  0  0  0  0
    5.6432  -13.7716   27.7974 O   0  0  0  0  0  0  0  0  0  0  0  0
    7.3741  -14.3458   26.3594 C   0  0  0  0  0  0  0  0  0  0  0  0
    7.7272  -13.0198   26.0629 C   0  0  0  0  0  0  0  0  0  0  0  0
    8.4497  -12.8558   24.8417 C   0  0  0  0  0  0  0  0  0  0  0  0
    8.6614  -14.0690   24.2332 C   0  0  0  0  0  0  0  0  0  0  0  0
    7.9665  -15.3701   25.1234 S   0  0  0  0  0  0  0  0  0  0  0  0
    2.7912  -17.0417   31.2005 C   0  0  0  0  0  0  0  0  0  0  0  0
    1.6473  -16.9368   32.0249 C   0  0  0  0  0  0  0  0  0  0  0  0
    0.7385  -17.9711   32.1791 C   0  0  0  0  0  0  0  0  0  0  0  0
    1.0981  -19.1727   31.5902 C   0  0  0  0  0  0  0  0  0  0  0  0
   -0.7205  -21.3400   33.0213 H   0  0  0  0  0  0  0  0  0  0  0  0
   -1.4026  -21.2760   31.3597 H   0  0  0  0  0  0  0  0  0  0  0  0
   -1.3927  -19.8074   32.3847 H   0  0  0  0  0  0  0  0  0  0  0  0
    1.1302  -22.3613   31.0297 H   0  0  0  0  0  0  0  0  0  0  0  0
    4.8178  -16.1728   29.7317 H   0  0  0  0  0  0  0  0  0  0  0  0
    6.6251  -17.1047   27.6248 H   0  0  0  0  0  0  0  0  0  0  0  0
    5.1827  -16.4231   26.8656 H   0  0  0  0  0  0  0  0  0  0  0  0
    7.2792  -14.7747   28.4776 H   0  0  0  0  0  0  0  0  0  0  0  0
    5.0450  -13.7967   27.0260 H   0  0  0  0  0  0  0  0  0  0  0  0
    7.4628  -12.1969   26.7182 H   0  0  0  0  0  0  0  0  0  0  0  0
    8.8021  -11.9102   24.4490 H   0  0  0  0  0  0  0  0  0  0  0  0
    9.1864  -14.2680   23.3087 H   0  0  0  0  0  0  0  0  0  0  0  0
    3.4366  -16.1798   31.1718 H   0  0  0  0  0  0  0  0  0  0  0  0
    1.4599  -15.9968   32.5445 H   0  0  0  0  0  0  0  0  0  0  0  0
   -0.1503  -17.8547   32.7888 H   0  0  0  0  0  0  0  0  0  0  0  0
  1  2  1  0
  2  3  1  0
  3  4  2  0
  4  5  1  0
  5  6  2  0
  6  7  1  0
  7  8  2  0
  7  9  1  0
  9 10  1  0
 10 11  1  0
 11 12  1  0
 11 13  1  0
 13 14  2  0
 14 15  1  0
 15 16  2  0
 16 17  1  0
  6 18  1  0
 18 19  2  0
 19 20  1  0
 20 21  2  0
 21  2  1  0
 21  5  1  0
 17 13  1  0
  1 22  1  0
  1 23  1  0
  1 24  1  0
  3 25  1  0
  9 26  1  0
 10 27  1  0
 10 28  1  0
 11 29  1  0
 12 30  1  0
 14 31  1  0
 15 32  1  0
 16 33  1  0
 18 34  1  0
 19 35  1  0
 20 36  1  0
M  END
>  <Energy>  (231) 
113.85378975972654

>  <compound_id>  (231) 
4868

>  <target_id>  (231) 
1

>  <reference_id>  (231) 
94

>  <inspiration_ids>  (231) 
[94, 66]

>  <energy_score>  (231) 
36.25468873437035

>  <distance_score>  (231) 
15.623517141407321

>  <path>  (231) 
/opt/xchem-fragalysis-2/maxwin/BulkDock/SCRATCH/511016/C4868-P94/C4868-P94.minimised.mol

>  <scratch_subdir>  (231) 
/opt/xchem-fragalysis-2/maxwin/BulkDock/SCRATCH/511016/C4868-P94

>  <fragmenstein_runtime>  (231) 
35.13545250892639

>  <fragmenstein_outcome>  (231) 
too moved

>  <fragmenstein_mode>  (231) 
expansion

>  <fragmenstein_error>  (231) 


$$$$
C4868-P66
     RDKit          3D

 36 38  0  0  0  0  0  0  0  0999 V2000
   -8.9386  -15.5672   24.1040 C   0  0  0  0  0  0  0  0  0  0  0  0
   -8.1145  -14.9671   23.0664 N   0  0  0  0  0  0  0  0  0  0  0  0
   -7.3906  -15.6369   22.1275 C   0  0  0  0  0  0  0  0  0  0  0  0
   -6.7268  -14.8104   21.3411 N   0  0  0  0  0  0  0  0  0  0  0  0
   -7.0475  -13.5041   21.7314 C   0  0  0  0  0  0  0  0  0  0  0  0
   -6.5808  -12.1875   21.2566 C   0  0  0  0  0  0  0  0  0  0  0  0
   -5.5339  -11.9166   20.0403 C   0  0  0  0  0  0  0  0  0  0  0  0
   -5.8081  -12.5605   19.0595 O   0  0  0  0  0  0  0  0  0  0  0  0
   -4.4057  -10.9300   20.2863 N   0  0  0  0  0  0  0  0  0  0  0  0
   -3.1890  -10.5190   19.3853 C   0  0  0  0  0  0  0  0  0  0  0  0
   -1.9873   -9.4867   19.9175 C   0  0  0  0  0  0  0  0  0  0  0  0
   -1.2117  -10.0999   20.9601 O   0  0  0  0  0  0  0  0  0  0  0  0
   -0.9150   -8.9628   18.9195 C   0  0  0  0  0  0  0  0  0  0  0  0
   -0.4983   -9.4008   17.6730 C   0  0  0  0  0  0  0  0  0  0  0  0
    0.6372   -8.6848   17.1572 C   0  0  0  0  0  0  0  0  0  0  0  0
    1.0738   -7.7088   18.0200 C   0  0  0  0  0  0  0  0  0  0  0  0
    0.1145   -7.6458   19.4333 S   0  0  0  0  0  0  0  0  0  0  0  0
   -7.0895  -11.1017   21.9886 C   0  0  0  0  0  0  0  0  0  0  0  0
   -7.9486  -11.2616   23.0970 C   0  0  0  0  0  0  0  0  0  0  0  0
   -8.3707  -12.5104   23.5561 C   0  0  0  0  0  0  0  0  0  0  0  0
   -7.9039  -13.6171   22.8558 C   0  0  0  0  0  0  0  0  0  0  0  0
   -8.8497  -16.6543   24.0474 H   0  0  0  0  0  0  0  0  0  0  0  0
   -8.5890  -15.2063   25.0738 H   0  0  0  0  0  0  0  0  0  0  0  0
   -9.9740  -15.2658   23.9274 H   0  0  0  0  0  0  0  0  0  0  0  0
   -7.3724  -16.7164   22.0499 H   0  0  0  0  0  0  0  0  0  0  0  0
   -4.4261  -10.6339   21.2589 H   0  0  0  0  0  0  0  0  0  0  0  0
   -2.7181  -11.4703   19.1130 H   0  0  0  0  0  0  0  0  0  0  0  0
   -3.6368  -10.0931   18.4811 H   0  0  0  0  0  0  0  0  0  0  0  0
   -2.5040   -8.6259   20.3593 H   0  0  0  0  0  0  0  0  0  0  0  0
   -0.3199   -9.6969   20.9726 H   0  0  0  0  0  0  0  0  0  0  0  0
   -0.9657  -10.2294   17.1532 H   0  0  0  0  0  0  0  0  0  0  0  0
    1.1100   -8.8979   16.2062 H   0  0  0  0  0  0  0  0  0  0  0  0
    1.9076   -7.0328   17.8928 H   0  0  0  0  0  0  0  0  0  0  0  0
   -6.8008  -10.0936   21.6974 H   0  0  0  0  0  0  0  0  0  0  0  0
   -8.2900  -10.3684   23.6206 H   0  0  0  0  0  0  0  0  0  0  0  0
   -9.0208  -12.5958   24.4199 H   0  0  0  0  0  0  0  0  0  0  0  0
  1  2  1  0
  2  3  1  0
  3  4  2  0
  4  5  1  0
  5  6  2  0
  6  7  1  0
  7  8  2  0
  7  9  1  0
  9 10  1  0
 10 11  1  0
 11 12  1  0
 11 13  1  0
 13 14  2  0
 14 15  1  0
 15 16  2  0
 16 17  1  0
  6 18  1  0
 18 19  2  0
 19 20  1  0
 20 21  2  0
 21  2  1  0
 21  5  1  0
 17 13  1  0
  1 22  1  0
  1 23  1  0
  1 24  1  0
  3 25  1  0
  9 26  1  0
 10 27  1  0
 10 28  1  0
 11 29  1  0
 12 30  1  0
 14 31  1  0
 15 32  1  0
 16 33  1  0
 18 34  1  0
 19 35  1  0
 20 36  1  0
M  END
>  <Energy>  (232) 
96.598484863231207

>  <compound_id>  (232) 
4868

>  <target_id>  (232) 
1

>  <reference_id>  (232) 
66

>  <inspiration_ids>  (232) 
[94, 66]

>  <energy_score>  (232) 
18.999383837873268

>  <distance_score>  (232) 
15.516298543616974

>  <path>  (232) 
/opt/xchem-fragalysis-2/maxwin/BulkDock/SCRATCH/511016/C4868-P66/C4868-P66.minimised.mol

>  <scratch_subdir>  (232) 
/opt/xchem-fragalysis-2/maxwin/BulkDock/SCRATCH/511016/C4868-P66

>  <fragmenstein_runtime>  (232) 
29.561596155166626

>  <fragmenstein_outcome>  (232) 
too moved

>  <fragmenstein_mode>  (232) 
expansion

>  <fragmenstein_error>  (232) 


$$$$
C4869-P94
     RDKit          3D

 38 41  0  0  0  0  0  0  0  0999 V2000
    5.9269   -9.0342   21.1457 O   0  0  0  0  0  0  0  0  0  0  0  0
    5.0903   -8.6166   20.2824 C   0  0  0  0  0  0  0  0  0  0  0  0
    3.3212   -9.9586   21.0764 C   0  0  0  0  0  0  0  0  0  0  0  0
    1.9517  -11.2540   21.8785 C   0  0  0  0  0  0  0  0  0  0  0  0
    0.1512  -12.4404   22.7691 C   0  0  0  0  0  0  0  0  0  0  0  0
   -0.6592  -13.8197   24.0767 C   0  0  0  0  0  0  0  0  0  0  0  0
   -1.7515  -14.3309   25.6907 C   0  0  0  0  0  0  0  0  0  0  0  0
   -2.3024  -15.4305   26.8508 C   0  0  0  0  0  0  0  0  0  0  0  0
   -3.9129  -16.1065   28.0772 N   0  0  0  0  0  0  0  0  0  0  0  0
   -5.8061  -15.4648   28.6157 C   0  0  0  0  0  0  0  0  0  0  0  0
   -6.0329  -14.5864   29.6591 N   0  0  0  0  0  0  0  0  0  0  0  0
   -5.9039  -15.5802   30.3557 C   0  0  0  0  0  0  0  0  0  0  0  0
   -6.7955  -15.8312   31.4303 C   0  0  0  0  0  0  0  0  0  0  0  0
   -6.7388  -17.0741   31.8135 C   0  0  0  0  0  0  0  0  0  0  0  0
   -6.9640  -17.6090   30.6001 C   0  0  0  0  0  0  0  0  0  0  0  0
   -6.1663  -17.3866   29.4966 C   0  0  0  0  0  0  0  0  0  0  0  0
   -5.0018  -16.5309   29.5109 C   0  0  0  0  0  0  0  0  0  0  0  0
   -1.8239  -15.1719   24.9187 C   0  0  0  0  0  0  0  0  0  0  0  0
   -0.6180  -14.1886   23.4781 C   0  0  0  0  0  0  0  0  0  0  0  0
    6.5287   -7.1866   19.2981 C   0  0  0  0  0  0  0  0  0  0  0  0
    6.8419   -6.0392   17.7178 C   0  0  0  0  0  0  0  0  0  0  0  0
    8.1364   -4.7735   16.5039 C   0  0  0  0  0  0  0  0  0  0  0  0
   10.0658   -4.8352   17.5526 C   0  0  0  0  0  0  0  0  0  0  0  0
    8.8037   -6.0579   19.5671 S   0  0  0  0  0  0  0  0  0  0  0  0
    4.1806  -10.6127   21.3746 H   0  0  0  0  0  0  0  0  0  0  0  0
    1.1069  -10.6495   21.4074 H   0  0  0  0  0  0  0  0  0  0  0  0
   -1.4243  -13.0500   25.0403 H   0  0  0  0  0  0  0  0  0  0  0  0
   -1.1350  -14.4164   26.8317 H   0  0  0  0  0  0  0  0  0  0  0  0
   -6.3084  -14.6431   28.0267 H   0  0  0  0  0  0  0  0  0  0  0  0
   -7.5379  -15.1181   31.7692 H   0  0  0  0  0  0  0  0  0  0  0  0
   -7.1938  -17.4160   32.7307 H   0  0  0  0  0  0  0  0  0  0  0  0
   -7.8705  -17.4503   30.0553 H   0  0  0  0  0  0  0  0  0  0  0  0
   -6.8123  -17.3402   28.6060 H   0  0  0  0  0  0  0  0  0  0  0  0
   -2.5753  -15.7954   24.3757 H   0  0  0  0  0  0  0  0  0  0  0  0
   -0.7012  -14.8020   22.3907 H   0  0  0  0  0  0  0  0  0  0  0  0
    5.9036   -6.1040   17.1523 H   0  0  0  0  0  0  0  0  0  0  0  0
    7.9713   -4.0221   15.7142 H   0  0  0  0  0  0  0  0  0  0  0  0
   10.6352   -5.3266   18.3125 H   0  0  0  0  0  0  0  0  0  0  0  0
  1  2  2  0
  2  3  1  0
  3  4  2  3
  4  5  1  0
  5  6  2  0
  6  7  1  0
  7  8  2  0
  8  9  1  0
  9 10  1  0
 10 11  2  0
 11 12  1  0
 12 13  2  0
 13 14  1  0
 14 15  2  0
 15 16  1  0
 16 17  2  0
  8 18  1  0
 18 19  2  0
  2 20  1  0
 20 21  2  0
 21 22  1  0
 22 23  2  0
 23 24  1  0
 19  5  1  0
 24 20  1  0
 17  9  1  0
 17 12  1  0
  3 25  1  0
  4 26  1  0
  6 27  1  0
  7 28  1  0
 10 29  1  0
 13 30  1  0
 14 31  1  0
 15 32  1  0
 16 33  1  0
 18 34  1  0
 19 35  1  0
 21 36  1  0
 22 37  1  0
 23 38  1  0
M  END
>  <Energy>  (233) 
5136.0623651081251

>  <compound_id>  (233) 
4869

>  <target_id>  (233) 
1

>  <reference_id>  (233) 
94

>  <inspiration_ids>  (233) 
[94, 66]

>  <energy_score>  (233) 
4994.039118016943

>  <distance_score>  (233) 
10.789007177842803

>  <path>  (233) 
/opt/xchem-fragalysis-2/maxwin/BulkDock/SCRATCH/511016/C4869-P94/C4869-P94.minimised.mol

>  <scratch_subdir>  (233) 
/opt/xchem-fragalysis-2/maxwin/BulkDock/SCRATCH/511016/C4869-P94

>  <fragmenstein_runtime>  (233) 
22.53786587715149

>  <fragmenstein_outcome>  (233) 
too moved

>  <fragmenstein_mode>  (233) 
expansion

>  <fragmenstein_error>  (233) 


$$$$
C4869-P66
     RDKit          3D

 38 41  0  0  0  0  0  0  0  0999 V2000
   -1.2589  -14.3765   20.9385 O   0  0  0  0  0  0  0  0  0  0  0  0
   -0.6746  -15.0979   21.7816 C   0  0  0  0  0  0  0  0  0  0  0  0
   -1.3729  -15.1376   23.6868 C   0  0  0  0  0  0  0  0  0  0  0  0
   -2.3662  -15.9496   24.7558 C   0  0  0  0  0  0  0  0  0  0  0  0
   -2.2973  -17.6233   25.8256 C   0  0  0  0  0  0  0  0  0  0  0  0
   -2.6623  -19.0421   25.9257 C   0  0  0  0  0  0  0  0  0  0  0  0
   -3.9718  -19.9783   24.9068 C   0  0  0  0  0  0  0  0  0  0  0  0
   -3.4782  -20.7205   23.8902 C   0  0  0  0  0  0  0  0  0  0  0  0
   -4.0655  -21.8708   23.3898 N   0  0  0  0  0  0  0  0  0  0  0  0
   -3.4876  -23.1133   23.3259 C   0  0  0  0  0  0  0  0  0  0  0  0
   -4.3094  -24.0245   22.8606 N   0  0  0  0  0  0  0  0  0  0  0  0
   -5.4313  -23.3238   22.5097 C   0  0  0  0  0  0  0  0  0  0  0  0
   -6.5400  -23.7501   21.7743 C   0  0  0  0  0  0  0  0  0  0  0  0
   -7.5761  -22.8533   21.5052 C   0  0  0  0  0  0  0  0  0  0  0  0
   -7.4794  -21.5287   21.9151 C   0  0  0  0  0  0  0  0  0  0  0  0
   -6.3588  -21.0626   22.6153 C   0  0  0  0  0  0  0  0  0  0  0  0
   -5.3465  -21.9900   22.8931 C   0  0  0  0  0  0  0  0  0  0  0  0
   -2.1834  -20.3082   24.1164 C   0  0  0  0  0  0  0  0  0  0  0  0
   -1.8649  -18.7569   25.3373 C   0  0  0  0  0  0  0  0  0  0  0  0
    0.0760  -16.1792   20.8267 C   0  0  0  0  0  0  0  0  0  0  0  0
   -0.1583  -17.5217   20.5457 C   0  0  0  0  0  0  0  0  0  0  0  0
    0.7112  -18.1105   19.5596 C   0  0  0  0  0  0  0  0  0  0  0  0
    1.5507  -17.2137   18.9612 C   0  0  0  0  0  0  0  0  0  0  0  0
    1.2413  -15.6624   19.5182 S   0  0  0  0  0  0  0  0  0  0  0  0
   -0.7608  -14.3464   24.1371 H   0  0  0  0  0  0  0  0  0  0  0  0
   -2.4370  -15.1932   25.5464 H   0  0  0  0  0  0  0  0  0  0  0  0
   -2.5481  -19.3837   26.9814 H   0  0  0  0  0  0  0  0  0  0  0  0
   -4.9053  -20.2988   25.3979 H   0  0  0  0  0  0  0  0  0  0  0  0
   -2.4719  -23.2985   23.6489 H   0  0  0  0  0  0  0  0  0  0  0  0
   -6.5568  -24.7594   21.3808 H   0  0  0  0  0  0  0  0  0  0  0  0
   -8.4371  -23.1841   20.9305 H   0  0  0  0  0  0  0  0  0  0  0  0
   -8.2751  -20.8330   21.6560 H   0  0  0  0  0  0  0  0  0  0  0  0
   -6.2649  -20.0153   22.8850 H   0  0  0  0  0  0  0  0  0  0  0  0
   -1.3529  -20.7705   23.5592 H   0  0  0  0  0  0  0  0  0  0  0  0
   -0.7493  -18.5219   25.9257 H   0  0  0  0  0  0  0  0  0  0  0  0
   -0.9034  -18.1178   21.0495 H   0  0  0  0  0  0  0  0  0  0  0  0
    0.6875  -19.1617   19.2985 H   0  0  0  0  0  0  0  0  0  0  0  0
    2.2774  -17.4024   18.1832 H   0  0  0  0  0  0  0  0  0  0  0  0
  1  2  2  0
  2  3  1  0
  3  4  2  3
  4  5  1  0
  5  6  2  0
  6  7  1  0
  7  8  2  0
  8  9  1  0
  9 10  1  0
 10 11  2  0
 11 12  1  0
 12 13  2  0
 13 14  1  0
 14 15  2  0
 15 16  1  0
 16 17  2  0
  8 18  1  0
 18 19  2  0
  2 20  1  0
 20 21  2  0
 21 22  1  0
 22 23  2  0
 23 24  1  0
 19  5  1  0
 24 20  1  0
 17  9  1  0
 17 12  1  0
  3 25  1  0
  4 26  1  0
  6 27  1  0
  7 28  1  0
 10 29  1  0
 13 30  1  0
 14 31  1  0
 15 32  1  0
 16 33  1  0
 18 34  1  0
 19 35  1  0
 21 36  1  0
 22 37  1  0
 23 38  1  0
M  END
>  <Energy>  (234) 
858.29233062449316

>  <compound_id>  (234) 
4869

>  <target_id>  (234) 
1

>  <reference_id>  (234) 
66

>  <inspiration_ids>  (234) 
[94, 66]

>  <energy_score>  (234) 
716.2690835333009

>  <distance_score>  (234) 
16.223122914496216

>  <path>  (234) 
/opt/xchem-fragalysis-2/maxwin/BulkDock/SCRATCH/511016/C4869-P66/C4869-P66.minimised.mol

>  <scratch_subdir>  (234) 
/opt/xchem-fragalysis-2/maxwin/BulkDock/SCRATCH/511016/C4869-P66

>  <fragmenstein_runtime>  (234) 
21.15089225769043

>  <fragmenstein_outcome>  (234) 
too moved

>  <fragmenstein_mode>  (234) 
expansion

>  <fragmenstein_error>  (234) 


$$$$
C4871-P94
     RDKit          3D

 42 45  0  0  0  0  0  0  0  0999 V2000
   -1.2988  -14.8613   25.0670 O   0  0  0  0  0  0  0  0  0  0  0  0
   -1.5190  -14.0925   25.9995 C   0  0  0  0  0  0  0  0  0  0  0  0
   -2.4145  -15.2929   27.8374 C   0  0  0  0  0  0  0  0  0  0  0  0
   -4.0112  -16.3534   29.8708 S   0  0  0  0  0  0  0  0  0  0  0  0
   -5.4304  -18.0331   31.2942 C   0  0  0  0  0  0  0  0  0  0  0  0
   -5.1939  -19.6911   31.4608 N   0  0  0  0  0  0  0  0  0  0  0  0
   -6.0436  -21.0573   32.4164 C   0  0  0  0  0  0  0  0  0  0  0  0
   -7.0015  -22.6966   32.1572 C   0  0  0  0  0  0  0  0  0  0  0  0
   -8.5523  -23.7451   32.1292 C   0  0  0  0  0  0  0  0  0  0  0  0
   -9.8913  -22.6364   31.7784 C   0  0  0  0  0  0  0  0  0  0  0  0
   -8.9688  -21.0850   32.2692 C   0  0  0  0  0  0  0  0  0  0  0  0
   -7.1560  -20.5460   32.9927 C   0  0  0  0  0  0  0  0  0  0  0  0
   -6.5042  -18.8025   32.8527 N   0  0  0  0  0  0  0  0  0  0  0  0
   -7.8688  -20.0053   33.7250 C   0  0  0  0  0  0  0  0  0  0  0  0
   -8.1637  -22.0040   33.8063 C   0  0  0  0  0  0  0  0  0  0  0  0
   -9.9058  -22.9115   33.6435 C   0  0  0  0  0  0  0  0  0  0  0  0
  -11.2824  -21.8133   33.5559 C   0  0  0  0  0  0  0  0  0  0  0  0
  -10.9970  -20.1288   33.5573 C   0  0  0  0  0  0  0  0  0  0  0  0
   -9.4587  -19.2555   33.5306 C   0  0  0  0  0  0  0  0  0  0  0  0
   -0.7740  -12.1045   25.6491 N   0  0  0  0  0  0  0  0  0  0  0  0
    0.5305  -11.1617   23.9552 C   0  0  0  0  0  0  0  0  0  0  0  0
    1.1444  -11.7230   23.0353 O   0  0  0  0  0  0  0  0  0  0  0  0
    0.4465   -9.0277   23.5879 C   0  0  0  0  0  0  0  0  0  0  0  0
    0.2268   -8.5629   22.2187 C   0  0  0  0  0  0  0  0  0  0  0  0
    0.5393   -7.1917   21.9714 C   0  0  0  0  0  0  0  0  0  0  0  0
    0.7827   -6.4894   23.1219 C   0  0  0  0  0  0  0  0  0  0  0  0
    0.5292   -7.4032   24.5543 S   0  0  0  0  0  0  0  0  0  0  0  0
   -2.8267  -14.6285   27.1314 H   0  0  0  0  0  0  0  0  0  0  0  0
   -2.2858  -16.3118   27.4313 H   0  0  0  0  0  0  0  0  0  0  0  0
   -7.1394  -21.7930   31.5869 H   0  0  0  0  0  0  0  0  0  0  0  0
   -8.5566  -24.8229   32.0279 H   0  0  0  0  0  0  0  0  0  0  0  0
  -10.8733  -22.7897   31.3647 H   0  0  0  0  0  0  0  0  0  0  0  0
   -9.7169  -20.3415   31.9491 H   0  0  0  0  0  0  0  0  0  0  0  0
   -7.5374  -22.7983   34.0963 H   0  0  0  0  0  0  0  0  0  0  0  0
  -10.1264  -24.0023   33.6152 H   0  0  0  0  0  0  0  0  0  0  0  0
  -12.2900  -22.2204   33.5817 H   0  0  0  0  0  0  0  0  0  0  0  0
  -11.8757  -19.5013   33.7055 H   0  0  0  0  0  0  0  0  0  0  0  0
   -9.4880  -18.1720   33.6947 H   0  0  0  0  0  0  0  0  0  0  0  0
   -1.0847  -11.4914   26.3456 H   0  0  0  0  0  0  0  0  0  0  0  0
    0.0637   -9.2888   21.4278 H   0  0  0  0  0  0  0  0  0  0  0  0
    0.5789   -6.7567   20.9803 H   0  0  0  0  0  0  0  0  0  0  0  0
    1.0232   -5.4389   23.2052 H   0  0  0  0  0  0  0  0  0  0  0  0
  1  2  2  0
  2  3  1  0
  3  4  1  0
  4  5  1  0
  5  6  2  0
  6  7  1  0
  7  8  2  0
  8  9  1  0
  9 10  2  0
 10 11  1  0
 11 12  2  0
 12 13  1  0
 13 14  1  0
 14 15  2  0
 15 16  1  0
 16 17  2  0
 17 18  1  0
 18 19  2  0
  2 20  1  0
 20 21  1  0
 21 22  2  0
 21 23  1  0
 23 24  2  0
 24 25  1  0
 25 26  2  0
 26 27  1  0
 13  5  1  0
 19 14  1  0
 27 23  1  0
 12  7  1  0
  3 28  1  0
  3 29  1  0
  8 30  1  0
  9 31  1  0
 10 32  1  0
 11 33  1  0
 15 34  1  0
 16 35  1  0
 17 36  1  0
 18 37  1  0
 19 38  1  0
 20 39  1  0
 24 40  1  0
 25 41  1  0
 26 42  1  0
M  END
>  <Energy>  (235) 
4292.4471549276404

>  <compound_id>  (235) 
4871

>  <target_id>  (235) 
1

>  <reference_id>  (235) 
94

>  <inspiration_ids>  (235) 
[94, 66]

>  <energy_score>  (235) 
4198.32706633644

>  <distance_score>  (235) 
12.269346578159878

>  <path>  (235) 
/opt/xchem-fragalysis-2/maxwin/BulkDock/SCRATCH/511016/C4871-P94/C4871-P94.minimised.mol

>  <scratch_subdir>  (235) 
/opt/xchem-fragalysis-2/maxwin/BulkDock/SCRATCH/511016/C4871-P94

>  <fragmenstein_runtime>  (235) 
24.83718466758728

>  <fragmenstein_outcome>  (235) 
too moved

>  <fragmenstein_mode>  (235) 
expansion

>  <fragmenstein_error>  (235) 


$$$$
C4871-P66
     RDKit          3D

 42 45  0  0  0  0  0  0  0  0999 V2000
   -4.8878  -10.3987   29.5923 O   0  0  0  0  0  0  0  0  0  0  0  0
   -3.7677  -10.6602   29.8665 C   0  0  0  0  0  0  0  0  0  0  0  0
   -3.5111  -11.8948   30.8206 C   0  0  0  0  0  0  0  0  0  0  0  0
   -4.9419  -12.1383   31.9754 S   0  0  0  0  0  0  0  0  0  0  0  0
   -5.3503  -13.8667   32.0479 C   0  0  0  0  0  0  0  0  0  0  0  0
   -4.4621  -14.8370   32.0450 N   0  0  0  0  0  0  0  0  0  0  0  0
   -5.1123  -15.9261   32.5811 C   0  0  0  0  0  0  0  0  0  0  0  0
   -4.5960  -17.2025   32.8665 C   0  0  0  0  0  0  0  0  0  0  0  0
   -5.4255  -18.1767   33.4193 C   0  0  0  0  0  0  0  0  0  0  0  0
   -6.7391  -17.8655   33.7414 C   0  0  0  0  0  0  0  0  0  0  0  0
   -7.2715  -16.6009   33.4838 C   0  0  0  0  0  0  0  0  0  0  0  0
   -6.4408  -15.6348   32.8911 C   0  0  0  0  0  0  0  0  0  0  0  0
   -6.6262  -14.3276   32.4290 N   0  0  0  0  0  0  0  0  0  0  0  0
   -7.8762  -13.6385   32.3087 C   0  0  0  0  0  0  0  0  0  0  0  0
   -8.9285  -13.8574   33.2090 C   0  0  0  0  0  0  0  0  0  0  0  0
  -10.1676  -13.2419   33.0047 C   0  0  0  0  0  0  0  0  0  0  0  0
  -10.3633  -12.3907   31.9203 C   0  0  0  0  0  0  0  0  0  0  0  0
   -9.3189  -12.1480   31.0344 C   0  0  0  0  0  0  0  0  0  0  0  0
   -8.0826  -12.7712   31.2218 C   0  0  0  0  0  0  0  0  0  0  0  0
   -2.3922  -10.0259   29.3795 N   0  0  0  0  0  0  0  0  0  0  0  0
   -2.0753   -8.7996   28.4769 C   0  0  0  0  0  0  0  0  0  0  0  0
   -2.7829   -8.0827   27.8631 O   0  0  0  0  0  0  0  0  0  0  0  0
   -0.6055   -8.4761   28.2689 C   0  0  0  0  0  0  0  0  0  0  0  0
   -0.1301   -7.4351   27.4475 C   0  0  0  0  0  0  0  0  0  0  0  0
    1.2937   -7.3248   27.3684 C   0  0  0  0  0  0  0  0  0  0  0  0
    1.8964   -8.2885   28.1394 C   0  0  0  0  0  0  0  0  0  0  0  0
    0.7399   -9.3105   28.9131 S   0  0  0  0  0  0  0  0  0  0  0  0
   -3.4102  -12.7889   30.2086 H   0  0  0  0  0  0  0  0  0  0  0  0
   -2.6133  -11.7264   31.4192 H   0  0  0  0  0  0  0  0  0  0  0  0
   -3.5572  -17.4206   32.6459 H   0  0  0  0  0  0  0  0  0  0  0  0
   -5.0449  -19.1783   33.5936 H   0  0  0  0  0  0  0  0  0  0  0  0
   -7.3872  -18.6343   34.1542 H   0  0  0  0  0  0  0  0  0  0  0  0
   -8.3145  -16.4242   33.7141 H   0  0  0  0  0  0  0  0  0  0  0  0
   -8.8060  -14.4596   34.1014 H   0  0  0  0  0  0  0  0  0  0  0  0
  -10.9885  -13.4307   33.6917 H   0  0  0  0  0  0  0  0  0  0  0  0
  -11.3320  -11.9218   31.7670 H   0  0  0  0  0  0  0  0  0  0  0  0
   -9.4680  -11.4863   30.1849 H   0  0  0  0  0  0  0  0  0  0  0  0
   -7.3148  -12.5960   30.4714 H   0  0  0  0  0  0  0  0  0  0  0  0
   -1.5784  -10.4001   29.8539 H   0  0  0  0  0  0  0  0  0  0  0  0
   -0.8099   -6.7711   26.9209 H   0  0  0  0  0  0  0  0  0  0  0  0
    1.8264   -6.5766   26.7932 H   0  0  0  0  0  0  0  0  0  0  0  0
    2.9541   -8.4523   28.2987 H   0  0  0  0  0  0  0  0  0  0  0  0
  1  2  2  0
  2  3  1  0
  3  4  1  0
  4  5  1  0
  5  6  2  0
  6  7  1  0
  7  8  2  0
  8  9  1  0
  9 10  2  0
 10 11  1  0
 11 12  2  0
 12 13  1  0
 13 14  1  0
 14 15  2  0
 15 16  1  0
 16 17  2  0
 17 18  1  0
 18 19  2  0
  2 20  1  0
 20 21  1  0
 21 22  2  0
 21 23  1  0
 23 24  2  0
 24 25  1  0
 25 26  2  0
 26 27  1  0
 13  5  1  0
 19 14  1  0
 27 23  1  0
 12  7  1  0
  3 28  1  0
  3 29  1  0
  8 30  1  0
  9 31  1  0
 10 32  1  0
 11 33  1  0
 15 34  1  0
 16 35  1  0
 17 36  1  0
 18 37  1  0
 19 38  1  0
 20 39  1  0
 24 40  1  0
 25 41  1  0
 26 42  1  0
M  END
>  <Energy>  (236) 
93.614657664334757

>  <compound_id>  (236) 
4871

>  <target_id>  (236) 
1

>  <reference_id>  (236) 
66

>  <inspiration_ids>  (236) 
[94, 66]

>  <energy_score>  (236) 
-0.5054309268639372

>  <distance_score>  (236) 
15.358526290773476

>  <path>  (236) 
/opt/xchem-fragalysis-2/maxwin/BulkDock/SCRATCH/511016/C4871-P66/C4871-P66.minimised.mol

>  <scratch_subdir>  (236) 
/opt/xchem-fragalysis-2/maxwin/BulkDock/SCRATCH/511016/C4871-P66

>  <fragmenstein_runtime>  (236) 
40.13981771469116

>  <fragmenstein_outcome>  (236) 
too moved

>  <fragmenstein_mode>  (236) 
expansion

>  <fragmenstein_error>  (236) 


$$$$
C4872-P94
     RDKit          3D

 47 50  0  0  0  0  0  0  0  0999 V2000
    5.7819  -15.6702   22.1096 O   0  0  0  0  0  0  0  0  0  0  0  0
    4.8601  -15.7180   23.1959 C   0  0  0  0  0  0  0  0  0  0  0  0
    3.7316  -14.7112   22.9730 C   0  0  0  0  0  0  0  0  0  0  0  0
    3.5269  -13.5811   24.0553 C   0  0  0  0  0  0  0  0  0  0  0  0
    1.8767  -13.2323   24.9230 N   0  0  0  0  0  0  0  0  0  0  0  0
    0.9147  -13.8482   26.5230 C   0  0  0  0  0  0  0  0  0  0  0  0
   -0.8012  -14.6455   27.5307 C   0  0  0  0  0  0  0  0  0  0  0  0
   -1.2086  -15.1265   28.8646 C   0  0  0  0  0  0  0  0  0  0  0  0
   -2.7980  -15.1771   29.6798 C   0  0  0  0  0  0  0  0  0  0  0  0
   -3.8545  -16.1744   29.5200 C   0  0  0  0  0  0  0  0  0  0  0  0
   -5.6354  -16.0215   29.9742 N   0  0  0  0  0  0  0  0  0  0  0  0
   -6.1882  -16.5118   31.2529 C   0  0  0  0  0  0  0  0  0  0  0  0
   -7.3463  -16.1076   31.6563 N   0  0  0  0  0  0  0  0  0  0  0  0
   -7.7544  -15.2858   30.7041 C   0  0  0  0  0  0  0  0  0  0  0  0
   -9.0116  -14.6353   30.7779 C   0  0  0  0  0  0  0  0  0  0  0  0
   -9.5115  -13.9619   29.6931 C   0  0  0  0  0  0  0  0  0  0  0  0
   -8.6701  -13.7920   28.6296 C   0  0  0  0  0  0  0  0  0  0  0  0
   -7.3462  -14.2873   28.6450 C   0  0  0  0  0  0  0  0  0  0  0  0
   -6.8397  -15.1754   29.6286 C   0  0  0  0  0  0  0  0  0  0  0  0
   -3.3614  -16.3614   28.1453 C   0  0  0  0  0  0  0  0  0  0  0  0
   -1.9888  -15.6219   27.3877 C   0  0  0  0  0  0  0  0  0  0  0  0
    5.0879  -12.8513   23.7455 C   0  0  0  0  0  0  0  0  0  0  0  0
    5.4442  -12.1962   22.5393 C   0  0  0  0  0  0  0  0  0  0  0  0
    6.7662  -11.6649   22.5179 C   0  0  0  0  0  0  0  0  0  0  0  0
    7.4434  -11.9951   23.6651 C   0  0  0  0  0  0  0  0  0  0  0  0
    6.4980  -12.9599   24.7318 S   0  0  0  0  0  0  0  0  0  0  0  0
    6.5470  -16.2148   22.3584 H   0  0  0  0  0  0  0  0  0  0  0  0
    5.4068  -15.5374   24.1190 H   0  0  0  0  0  0  0  0  0  0  0  0
    4.4677  -16.7385   23.2197 H   0  0  0  0  0  0  0  0  0  0  0  0
    3.8443  -14.2899   21.9651 H   0  0  0  0  0  0  0  0  0  0  0  0
    2.8105  -15.2342   22.9519 H   0  0  0  0  0  0  0  0  0  0  0  0
    3.1354  -12.8029   23.3866 H   0  0  0  0  0  0  0  0  0  0  0  0
    1.7265  -12.2291   24.9283 H   0  0  0  0  0  0  0  0  0  0  0  0
    1.0016  -12.8143   26.6984 H   0  0  0  0  0  0  0  0  0  0  0  0
    1.8580  -14.2299   26.8958 H   0  0  0  0  0  0  0  0  0  0  0  0
   -0.4389  -15.3737   29.6299 H   0  0  0  0  0  0  0  0  0  0  0  0
   -3.1735  -14.1386   29.6666 H   0  0  0  0  0  0  0  0  0  0  0  0
   -5.6312  -17.0463   32.0113 H   0  0  0  0  0  0  0  0  0  0  0  0
   -9.6192  -14.7684   31.6698 H   0  0  0  0  0  0  0  0  0  0  0  0
  -10.5056  -13.5306   29.7061 H   0  0  0  0  0  0  0  0  0  0  0  0
   -8.9917  -13.1888   27.7813 H   0  0  0  0  0  0  0  0  0  0  0  0
   -6.8023  -13.9022   27.8002 H   0  0  0  0  0  0  0  0  0  0  0  0
   -3.6331  -17.1518   27.4543 H   0  0  0  0  0  0  0  0  0  0  0  0
   -1.7005  -16.7491   27.2513 H   0  0  0  0  0  0  0  0  0  0  0  0
    4.7389  -12.0790   21.7226 H   0  0  0  0  0  0  0  0  0  0  0  0
    7.1961  -11.1049   21.6971 H   0  0  0  0  0  0  0  0  0  0  0  0
    8.4657  -11.7575   23.9244 H   0  0  0  0  0  0  0  0  0  0  0  0
  1  2  1  0
  2  3  1  0
  3  4  1  0
  4  5  1  0
  5  6  1  0
  6  7  1  0
  7  8  2  0
  8  9  1  0
  9 10  2  0
 10 11  1  0
 11 12  1  0
 12 13  2  0
 13 14  1  0
 14 15  2  0
 15 16  1  0
 16 17  2  0
 17 18  1  0
 18 19  2  0
 10 20  1  0
 20 21  2  0
  4 22  1  0
 22 23  2  0
 23 24  1  0
 24 25  2  0
 25 26  1  0
 21  7  1  0
 26 22  1  0
 19 11  1  0
 19 14  1  0
  1 27  1  0
  2 28  1  0
  2 29  1  0
  3 30  1  0
  3 31  1  0
  4 32  1  0
  5 33  1  0
  6 34  1  0
  6 35  1  0
  8 36  1  0
  9 37  1  0
 12 38  1  0
 15 39  1  0
 16 40  1  0
 17 41  1  0
 18 42  1  0
 20 43  1  0
 21 44  1  0
 23 45  1  0
 24 46  1  0
 25 47  1  0
M  END
>  <Energy>  (237) 
891.33495911299735

>  <compound_id>  (237) 
4872

>  <target_id>  (237) 
1

>  <reference_id>  (237) 
94

>  <inspiration_ids>  (237) 
[94, 66]

>  <energy_score>  (237) 
775.5084373164445

>  <distance_score>  (237) 
13.507865684302631

>  <path>  (237) 
/opt/xchem-fragalysis-2/maxwin/BulkDock/SCRATCH/511016/C4872-P94/C4872-P94.minimised.mol

>  <scratch_subdir>  (237) 
/opt/xchem-fragalysis-2/maxwin/BulkDock/SCRATCH/511016/C4872-P94

>  <fragmenstein_runtime>  (237) 
20.90780520439148

>  <fragmenstein_outcome>  (237) 
too moved

>  <fragmenstein_mode>  (237) 
expansion

>  <fragmenstein_error>  (237) 


$$$$
C4872-P66
     RDKit          3D

 47 50  0  0  0  0  0  0  0  0999 V2000
    7.5271  -13.4321   25.0117 O   0  0  0  0  0  0  0  0  0  0  0  0
    7.1447  -12.2238   24.3699 C   0  0  0  0  0  0  0  0  0  0  0  0
    5.5143  -11.8532   24.5168 C   0  0  0  0  0  0  0  0  0  0  0  0
    3.6227  -12.5859   23.7895 C   0  0  0  0  0  0  0  0  0  0  0  0
    1.8522  -12.9365   24.1992 N   0  0  0  0  0  0  0  0  0  0  0  0
    0.2946  -14.2001   24.4691 C   0  0  0  0  0  0  0  0  0  0  0  0
   -1.6344  -14.4826   25.3027 C   0  0  0  0  0  0  0  0  0  0  0  0
   -2.0348  -15.0581   26.9932 C   0  0  0  0  0  0  0  0  0  0  0  0
   -2.9405  -16.2396   27.8340 C   0  0  0  0  0  0  0  0  0  0  0  0
   -3.5448  -17.2792   27.2898 C   0  0  0  0  0  0  0  0  0  0  0  0
   -5.2734  -18.1938   27.4011 N   0  0  0  0  0  0  0  0  0  0  0  0
   -6.9444  -17.5158   27.7684 C   0  0  0  0  0  0  0  0  0  0  0  0
   -7.7576  -18.4471   27.3576 N   0  0  0  0  0  0  0  0  0  0  0  0
   -6.8503  -19.9473   26.9216 C   0  0  0  0  0  0  0  0  0  0  0  0
   -6.8869  -21.3973   27.1109 C   0  0  0  0  0  0  0  0  0  0  0  0
   -6.0586  -22.2303   26.3411 C   0  0  0  0  0  0  0  0  0  0  0  0
   -5.3563  -21.7084   25.2873 C   0  0  0  0  0  0  0  0  0  0  0  0
   -5.2019  -20.3303   25.2429 C   0  0  0  0  0  0  0  0  0  0  0  0
   -5.7978  -19.4968   26.2894 C   0  0  0  0  0  0  0  0  0  0  0  0
   -2.7516  -17.0162   25.9055 C   0  0  0  0  0  0  0  0  0  0  0  0
   -2.4022  -15.6120   24.8734 C   0  0  0  0  0  0  0  0  0  0  0  0
    3.6234  -11.7414   22.1123 C   0  0  0  0  0  0  0  0  0  0  0  0
    3.8849  -10.3839   21.8006 C   0  0  0  0  0  0  0  0  0  0  0  0
    4.1615  -10.0668   20.4323 C   0  0  0  0  0  0  0  0  0  0  0  0
    4.1745  -11.1880   19.6542 C   0  0  0  0  0  0  0  0  0  0  0  0
    3.8674  -12.6008   20.5564 S   0  0  0  0  0  0  0  0  0  0  0  0
    7.4266  -13.3124   25.9706 H   0  0  0  0  0  0  0  0  0  0  0  0
    7.6949  -11.4166   24.8725 H   0  0  0  0  0  0  0  0  0  0  0  0
    7.4968  -12.2156   23.3315 H   0  0  0  0  0  0  0  0  0  0  0  0
    5.7519  -10.8745   24.0046 H   0  0  0  0  0  0  0  0  0  0  0  0
    5.5734  -12.0415   25.6038 H   0  0  0  0  0  0  0  0  0  0  0  0
    3.6320  -13.6701   23.9980 H   0  0  0  0  0  0  0  0  0  0  0  0
    1.5166  -12.1239   24.7155 H   0  0  0  0  0  0  0  0  0  0  0  0
   -0.1014  -13.9728   23.4718 H   0  0  0  0  0  0  0  0  0  0  0  0
    0.7065  -13.7175   25.4574 H   0  0  0  0  0  0  0  0  0  0  0  0
   -1.3511  -14.8575   27.8517 H   0  0  0  0  0  0  0  0  0  0  0  0
   -3.4216  -15.8933   28.7271 H   0  0  0  0  0  0  0  0  0  0  0  0
   -7.0005  -16.7675   28.5632 H   0  0  0  0  0  0  0  0  0  0  0  0
   -7.6208  -21.9047   27.7100 H   0  0  0  0  0  0  0  0  0  0  0  0
   -6.1119  -23.2864   26.4170 H   0  0  0  0  0  0  0  0  0  0  0  0
   -4.8755  -22.3517   24.5566 H   0  0  0  0  0  0  0  0  0  0  0  0
   -4.5024  -19.9619   24.5110 H   0  0  0  0  0  0  0  0  0  0  0  0
   -1.9749  -17.8150   25.8746 H   0  0  0  0  0  0  0  0  0  0  0  0
   -3.1431  -15.4587   24.0966 H   0  0  0  0  0  0  0  0  0  0  0  0
    3.9071   -9.5936   22.5241 H   0  0  0  0  0  0  0  0  0  0  0  0
    4.3474   -9.0687   20.0580 H   0  0  0  0  0  0  0  0  0  0  0  0
    4.3571  -11.2593   18.5911 H   0  0  0  0  0  0  0  0  0  0  0  0
  1  2  1  0
  2  3  1  0
  3  4  1  0
  4  5  1  0
  5  6  1  0
  6  7  1  0
  7  8  2  0
  8  9  1  0
  9 10  2  0
 10 11  1  0
 11 12  1  0
 12 13  2  0
 13 14  1  0
 14 15  2  0
 15 16  1  0
 16 17  2  0
 17 18  1  0
 18 19  2  0
 10 20  1  0
 20 21  2  0
  4 22  1  0
 22 23  2  0
 23 24  1  0
 24 25  2  0
 25 26  1  0
 21  7  1  0
 26 22  1  0
 19 11  1  0
 19 14  1  0
  1 27  1  0
  2 28  1  0
  2 29  1  0
  3 30  1  0
  3 31  1  0
  4 32  1  0
  5 33  1  0
  6 34  1  0
  6 35  1  0
  8 36  1  0
  9 37  1  0
 12 38  1  0
 15 39  1  0
 16 40  1  0
 17 41  1  0
 18 42  1  0
 20 43  1  0
 21 44  1  0
 23 45  1  0
 24 46  1  0
 25 47  1  0
M  END
>  <Energy>  (238) 
1190.2466703023067

>  <compound_id>  (238) 
4872

>  <target_id>  (238) 
1

>  <reference_id>  (238) 
66

>  <inspiration_ids>  (238) 
[94, 66]

>  <energy_score>  (238) 
1074.4201485057345

>  <distance_score>  (238) 
12.388115058262386

>  <path>  (238) 
/opt/xchem-fragalysis-2/maxwin/BulkDock/SCRATCH/511016/C4872-P66/C4872-P66.minimised.mol

>  <scratch_subdir>  (238) 
/opt/xchem-fragalysis-2/maxwin/BulkDock/SCRATCH/511016/C4872-P66

>  <fragmenstein_runtime>  (238) 
21.24963665008545

>  <fragmenstein_outcome>  (238) 
too moved

>  <fragmenstein_mode>  (238) 
expansion

>  <fragmenstein_error>  (238) 


$$$$
C4873-P94
     RDKit          3D

 50 53  0  0  0  0  0  0  0  0999 V2000
    0.2027  -13.5405   26.4990 C   0  0  0  0  0  0  0  0  0  0  0  0
   -1.4875  -14.3690   25.7381 N   0  0  0  0  0  0  0  0  0  0  0  0
    0.1079  -14.4045   24.2827 C   0  0  0  0  0  0  0  0  0  0  0  0
    2.1349  -14.2477   23.3662 C   0  0  0  0  0  0  0  0  0  0  0  0
    2.9295  -13.7062   24.1080 O   0  0  0  0  0  0  0  0  0  0  0  0
    2.7965  -14.6723   21.5590 N   0  0  0  0  0  0  0  0  0  0  0  0
    4.1221  -14.3565   20.8490 C   0  0  0  0  0  0  0  0  0  0  0  0
    4.4535  -14.1545   19.3621 C   0  0  0  0  0  0  0  0  0  0  0  0
    3.8306  -14.3848   18.1533 C   0  0  0  0  0  0  0  0  0  0  0  0
    4.5028  -13.7611   17.0431 C   0  0  0  0  0  0  0  0  0  0  0  0
    5.6795  -13.1482   17.4028 C   0  0  0  0  0  0  0  0  0  0  0  0
    6.0090  -13.3650   19.0584 S   0  0  0  0  0  0  0  0  0  0  0  0
   -2.3828  -15.5157   27.3642 C   0  0  0  0  0  0  0  0  0  0  0  0
   -4.1251  -16.3373   28.4662 C   0  0  0  0  0  0  0  0  0  0  0  0
   -6.0347  -15.9854   28.7304 C   0  0  0  0  0  0  0  0  0  0  0  0
   -7.6757  -17.0489   28.2334 C   0  0  0  0  0  0  0  0  0  0  0  0
   -8.5401  -18.6994   28.2687 C   0  0  0  0  0  0  0  0  0  0  0  0
   -9.7915  -20.2799   28.8608 N   0  0  0  0  0  0  0  0  0  0  0  0
  -10.5273  -20.7654   30.3094 C   0  0  0  0  0  0  0  0  0  0  0  0
  -11.1940  -21.8552   30.4829 N   0  0  0  0  0  0  0  0  0  0  0  0
  -11.1298  -22.4899   29.3394 C   0  0  0  0  0  0  0  0  0  0  0  0
  -11.4988  -23.8480   29.1794 C   0  0  0  0  0  0  0  0  0  0  0  0
  -11.6236  -24.3786   27.9180 C   0  0  0  0  0  0  0  0  0  0  0  0
  -11.6274  -23.4671   26.8999 C   0  0  0  0  0  0  0  0  0  0  0  0
  -11.2454  -22.1218   27.1335 C   0  0  0  0  0  0  0  0  0  0  0  0
  -10.6014  -21.6826   28.3000 C   0  0  0  0  0  0  0  0  0  0  0  0
   -7.4155  -18.0471   29.2172 C   0  0  0  0  0  0  0  0  0  0  0  0
   -5.5641  -17.4484   28.9417 C   0  0  0  0  0  0  0  0  0  0  0  0
    1.1704  -14.1204   26.4950 H   0  0  0  0  0  0  0  0  0  0  0  0
    0.8122  -12.6828   26.1325 H   0  0  0  0  0  0  0  0  0  0  0  0
   -0.1460  -14.0567   27.3467 H   0  0  0  0  0  0  0  0  0  0  0  0
   -0.4394  -14.0604   23.4269 H   0  0  0  0  0  0  0  0  0  0  0  0
    0.7995  -13.9510   24.8969 H   0  0  0  0  0  0  0  0  0  0  0  0
    1.9903  -15.0465   20.9805 H   0  0  0  0  0  0  0  0  0  0  0  0
    4.2329  -13.2969   21.0795 H   0  0  0  0  0  0  0  0  0  0  0  0
    4.8449  -15.1068   21.1931 H   0  0  0  0  0  0  0  0  0  0  0  0
    2.8874  -14.9085   18.0607 H   0  0  0  0  0  0  0  0  0  0  0  0
    4.1353  -13.7796   16.0239 H   0  0  0  0  0  0  0  0  0  0  0  0
    6.3776  -12.6215   16.7652 H   0  0  0  0  0  0  0  0  0  0  0  0
   -1.8243  -15.0745   28.1795 H   0  0  0  0  0  0  0  0  0  0  0  0
   -2.0706  -16.5601   27.2086 H   0  0  0  0  0  0  0  0  0  0  0  0
   -6.3661  -14.9086   28.7063 H   0  0  0  0  0  0  0  0  0  0  0  0
   -8.4202  -16.2931   27.8436 H   0  0  0  0  0  0  0  0  0  0  0  0
  -10.3515  -20.2312   31.2306 H   0  0  0  0  0  0  0  0  0  0  0  0
  -11.7454  -24.4313   30.0619 H   0  0  0  0  0  0  0  0  0  0  0  0
  -11.9332  -25.4043   27.7680 H   0  0  0  0  0  0  0  0  0  0  0  0
  -11.9958  -23.7459   25.9155 H   0  0  0  0  0  0  0  0  0  0  0  0
  -11.4458  -21.4360   26.3339 H   0  0  0  0  0  0  0  0  0  0  0  0
   -7.1845  -18.3720   30.2580 H   0  0  0  0  0  0  0  0  0  0  0  0
   -5.2876  -18.1346   27.9295 H   0  0  0  0  0  0  0  0  0  0  0  0
  1  2  1  0
  2  3  1  0
  3  4  1  0
  4  5  2  0
  4  6  1  0
  6  7  1  0
  7  8  1  0
  8  9  2  0
  9 10  1  0
 10 11  2  0
 11 12  1  0
  2 13  1  0
 13 14  1  0
 14 15  2  0
 15 16  1  0
 16 17  2  0
 17 18  1  0
 18 19  1  0
 19 20  2  0
 20 21  1  0
 21 22  2  0
 22 23  1  0
 23 24  2  0
 24 25  1  0
 25 26  2  0
 17 27  1  0
 27 28  2  0
 12  8  1  0
 28 14  1  0
 26 18  1  0
 26 21  1  0
  1 29  1  0
  1 30  1  0
  1 31  1  0
  3 32  1  0
  3 33  1  0
  6 34  1  0
  7 35  1  0
  7 36  1  0
  9 37  1  0
 10 38  1  0
 11 39  1  0
 13 40  1  0
 13 41  1  0
 15 42  1  0
 16 43  1  0
 19 44  1  0
 22 45  1  0
 23 46  1  0
 24 47  1  0
 25 48  1  0
 27 49  1  0
 28 50  1  0
M  END
>  <Energy>  (239) 
2499.1838099304414

>  <compound_id>  (239) 
4873

>  <target_id>  (239) 
1

>  <reference_id>  (239) 
94

>  <inspiration_ids>  (239) 
[94, 66]

>  <energy_score>  (239) 
2363.633506170683

>  <distance_score>  (239) 
11.414333327271503

>  <path>  (239) 
/opt/xchem-fragalysis-2/maxwin/BulkDock/SCRATCH/511016/C4873-P94/C4873-P94.minimised.mol

>  <scratch_subdir>  (239) 
/opt/xchem-fragalysis-2/maxwin/BulkDock/SCRATCH/511016/C4873-P94

>  <fragmenstein_runtime>  (239) 
45.390737771987915

>  <fragmenstein_outcome>  (239) 
too moved

>  <fragmenstein_mode>  (239) 
expansion

>  <fragmenstein_error>  (239) 


$$$$
C4873-P66
     RDKit          3D

 50 53  0  0  0  0  0  0  0  0999 V2000
    0.9039  -11.9172   26.7393 C   0  0  0  0  0  0  0  0  0  0  0  0
    0.4778  -13.5945   26.8057 N   0  0  0  0  0  0  0  0  0  0  0  0
    2.3820  -13.9395   26.9186 C   0  0  0  0  0  0  0  0  0  0  0  0
    4.1675  -14.1108   26.0646 C   0  0  0  0  0  0  0  0  0  0  0  0
    4.3209  -14.9678   25.2401 O   0  0  0  0  0  0  0  0  0  0  0  0
    5.3704  -13.0102   26.5863 N   0  0  0  0  0  0  0  0  0  0  0  0
    6.8067  -12.7840   26.0961 C   0  0  0  0  0  0  0  0  0  0  0  0
    7.2244  -11.4647   25.3875 C   0  0  0  0  0  0  0  0  0  0  0  0
    7.6240  -11.2671   24.0644 C   0  0  0  0  0  0  0  0  0  0  0  0
    8.0244   -9.9299   23.7542 C   0  0  0  0  0  0  0  0  0  0  0  0
    8.0155   -9.1378   24.8748 C   0  0  0  0  0  0  0  0  0  0  0  0
    7.5599  -10.0182   26.2783 S   0  0  0  0  0  0  0  0  0  0  0  0
   -0.8460  -14.6709   28.0528 C   0  0  0  0  0  0  0  0  0  0  0  0
   -2.4773  -14.5059   29.2618 C   0  0  0  0  0  0  0  0  0  0  0  0
   -3.5924  -13.2360   29.6447 C   0  0  0  0  0  0  0  0  0  0  0  0
   -5.2769  -13.5895   30.1328 C   0  0  0  0  0  0  0  0  0  0  0  0
   -6.0066  -15.0939   30.5553 C   0  0  0  0  0  0  0  0  0  0  0  0
   -6.2295  -16.0273   32.1625 N   0  0  0  0  0  0  0  0  0  0  0  0
   -5.2657  -16.7284   32.9902 C   0  0  0  0  0  0  0  0  0  0  0  0
   -5.7337  -17.4751   33.9553 N   0  0  0  0  0  0  0  0  0  0  0  0
   -6.9698  -16.9972   34.1710 C   0  0  0  0  0  0  0  0  0  0  0  0
   -7.8084  -17.2722   35.2542 C   0  0  0  0  0  0  0  0  0  0  0  0
   -9.0286  -16.6002   35.3699 C   0  0  0  0  0  0  0  0  0  0  0  0
   -9.4130  -15.6652   34.4233 C   0  0  0  0  0  0  0  0  0  0  0  0
   -8.5717  -15.3481   33.3592 C   0  0  0  0  0  0  0  0  0  0  0  0
   -7.3364  -16.0409   33.2282 C   0  0  0  0  0  0  0  0  0  0  0  0
   -5.2122  -16.0190   29.9012 C   0  0  0  0  0  0  0  0  0  0  0  0
   -3.5730  -15.7569   29.5809 C   0  0  0  0  0  0  0  0  0  0  0  0
    1.7186  -11.4322   27.2804 H   0  0  0  0  0  0  0  0  0  0  0  0
    0.4148  -11.0847   27.3299 H   0  0  0  0  0  0  0  0  0  0  0  0
    1.1930  -11.8069   25.7311 H   0  0  0  0  0  0  0  0  0  0  0  0
    2.6684  -13.2429   27.6188 H   0  0  0  0  0  0  0  0  0  0  0  0
    2.1311  -13.5347   25.9437 H   0  0  0  0  0  0  0  0  0  0  0  0
    5.0041  -12.4565   27.3386 H   0  0  0  0  0  0  0  0  0  0  0  0
    7.0678  -13.6237   25.4424 H   0  0  0  0  0  0  0  0  0  0  0  0
    7.4458  -12.8647   26.9804 H   0  0  0  0  0  0  0  0  0  0  0  0
    7.6398  -12.0643   23.3327 H   0  0  0  0  0  0  0  0  0  0  0  0
    8.3349   -9.5894   22.7739 H   0  0  0  0  0  0  0  0  0  0  0  0
    8.2937   -8.0957   24.9548 H   0  0  0  0  0  0  0  0  0  0  0  0
   -0.2498  -15.3270   28.7269 H   0  0  0  0  0  0  0  0  0  0  0  0
   -1.5749  -15.1857   27.3944 H   0  0  0  0  0  0  0  0  0  0  0  0
   -3.3541  -12.1856   29.4851 H   0  0  0  0  0  0  0  0  0  0  0  0
   -5.6084  -12.6824   30.6263 H   0  0  0  0  0  0  0  0  0  0  0  0
   -4.1970  -16.6290   32.8480 H   0  0  0  0  0  0  0  0  0  0  0  0
   -7.4806  -17.9811   36.0065 H   0  0  0  0  0  0  0  0  0  0  0  0
   -9.6825  -16.8068   36.2130 H   0  0  0  0  0  0  0  0  0  0  0  0
  -10.3789  -15.1731   34.5114 H   0  0  0  0  0  0  0  0  0  0  0  0
   -8.8978  -14.6270   32.6237 H   0  0  0  0  0  0  0  0  0  0  0  0
   -5.5637  -16.9353   29.4552 H   0  0  0  0  0  0  0  0  0  0  0  0
   -3.5169  -16.3324   28.5647 H   0  0  0  0  0  0  0  0  0  0  0  0
  1  2  1  0
  2  3  1  0
  3  4  1  0
  4  5  2  0
  4  6  1  0
  6  7  1  0
  7  8  1  0
  8  9  2  0
  9 10  1  0
 10 11  2  0
 11 12  1  0
  2 13  1  0
 13 14  1  0
 14 15  2  0
 15 16  1  0
 16 17  2  0
 17 18  1  0
 18 19  1  0
 19 20  2  0
 20 21  1  0
 21 22  2  0
 22 23  1  0
 23 24  2  0
 24 25  1  0
 25 26  2  0
 17 27  1  0
 27 28  2  0
 12  8  1  0
 28 14  1  0
 26 18  1  0
 26 21  1  0
  1 29  1  0
  1 30  1  0
  1 31  1  0
  3 32  1  0
  3 33  1  0
  6 34  1  0
  7 35  1  0
  7 36  1  0
  9 37  1  0
 10 38  1  0
 11 39  1  0
 13 40  1  0
 13 41  1  0
 15 42  1  0
 16 43  1  0
 19 44  1  0
 22 45  1  0
 23 46  1  0
 24 47  1  0
 25 48  1  0
 27 49  1  0
 28 50  1  0
M  END
>  <Energy>  (240) 
971.59339513944758

>  <compound_id>  (240) 
4873

>  <target_id>  (240) 
1

>  <reference_id>  (240) 
66

>  <inspiration_ids>  (240) 
[94, 66]

>  <energy_score>  (240) 
836.0430913796714

>  <distance_score>  (240) 
12.553470744670792

>  <path>  (240) 
/opt/xchem-fragalysis-2/maxwin/BulkDock/SCRATCH/511016/C4873-P66/C4873-P66.minimised.mol

>  <scratch_subdir>  (240) 
/opt/xchem-fragalysis-2/maxwin/BulkDock/SCRATCH/511016/C4873-P66

>  <fragmenstein_runtime>  (240) 
34.43179154396057

>  <fragmenstein_outcome>  (240) 
too moved

>  <fragmenstein_mode>  (240) 
expansion

>  <fragmenstein_error>  (240) 


$$$$
C4874-P94
     RDKit          3D

 46 49  0  0  0  0  0  0  0  0999 V2000
    4.2106  -14.0142   22.5199 C   0  0  0  0  0  0  0  0  0  0  0  0
    3.3425  -14.1559   23.7214 N   0  0  0  0  0  0  0  0  0  0  0  0
    4.7707  -13.9238   24.4498 C   0  0  0  0  0  0  0  0  0  0  0  0
    5.9699  -12.8290   23.9698 C   0  0  0  0  0  0  0  0  0  0  0  0
    6.0973  -11.8353   22.9784 C   0  0  0  0  0  0  0  0  0  0  0  0
    7.3733  -11.1909   22.9139 C   0  0  0  0  0  0  0  0  0  0  0  0
    8.2288  -11.6964   23.8552 C   0  0  0  0  0  0  0  0  0  0  0  0
    7.4960  -12.9201   24.8040 S   0  0  0  0  0  0  0  0  0  0  0  0
    2.1406  -13.1380   24.3771 C   0  0  0  0  0  0  0  0  0  0  0  0
    1.9550  -12.0665   23.9056 O   0  0  0  0  0  0  0  0  0  0  0  0
    0.7970  -13.5986   25.8138 C   0  0  0  0  0  0  0  0  0  0  0  0
   -1.6827  -14.2651   25.6420 S   0  0  0  0  0  0  0  0  0  0  0  0
   -2.2172  -15.5578   27.5260 C   0  0  0  0  0  0  0  0  0  0  0  0
   -1.5652  -16.7818   27.4714 N   0  0  0  0  0  0  0  0  0  0  0  0
   -2.2946  -17.7733   26.9526 C   0  0  0  0  0  0  0  0  0  0  0  0
   -2.1443  -19.1693   26.5617 C   0  0  0  0  0  0  0  0  0  0  0  0
   -2.9158  -20.4641   26.7569 C   0  0  0  0  0  0  0  0  0  0  0  0
   -4.2155  -20.4392   27.1874 C   0  0  0  0  0  0  0  0  0  0  0  0
   -4.6295  -19.1379   27.5384 C   0  0  0  0  0  0  0  0  0  0  0  0
   -3.5253  -17.6277   27.4496 C   0  0  0  0  0  0  0  0  0  0  0  0
   -3.6970  -16.4008   28.2371 N   0  0  0  0  0  0  0  0  0  0  0  0
   -5.2907  -16.3175   29.3175 C   0  0  0  0  0  0  0  0  0  0  0  0
   -6.1857  -17.2665   29.7112 C   0  0  0  0  0  0  0  0  0  0  0  0
   -6.6574  -17.0907   31.0619 C   0  0  0  0  0  0  0  0  0  0  0  0
   -6.9711  -15.8900   31.6013 C   0  0  0  0  0  0  0  0  0  0  0  0
   -6.9437  -14.8726   30.7021 C   0  0  0  0  0  0  0  0  0  0  0  0
   -6.1683  -15.1227   29.5888 C   0  0  0  0  0  0  0  0  0  0  0  0
    3.6799  -14.5501   21.7263 H   0  0  0  0  0  0  0  0  0  0  0  0
    5.1668  -14.5534   22.4319 H   0  0  0  0  0  0  0  0  0  0  0  0
    4.1426  -13.0049   22.1243 H   0  0  0  0  0  0  0  0  0  0  0  0
    5.2784  -14.9050   24.3586 H   0  0  0  0  0  0  0  0  0  0  0  0
    4.6299  -13.9034   25.5208 H   0  0  0  0  0  0  0  0  0  0  0  0
    5.3113  -11.5271   22.3010 H   0  0  0  0  0  0  0  0  0  0  0  0
    7.6369  -10.4091   22.2124 H   0  0  0  0  0  0  0  0  0  0  0  0
    9.2558  -11.4136   24.0423 H   0  0  0  0  0  0  0  0  0  0  0  0
    1.3343  -14.1856   26.5287 H   0  0  0  0  0  0  0  0  0  0  0  0
    0.9505  -12.6399   26.2723 H   0  0  0  0  0  0  0  0  0  0  0  0
   -2.2111  -19.0259   25.5069 H   0  0  0  0  0  0  0  0  0  0  0  0
   -2.5293  -21.3701   26.2923 H   0  0  0  0  0  0  0  0  0  0  0  0
   -4.8620  -21.3000   27.1658 H   0  0  0  0  0  0  0  0  0  0  0  0
   -5.6698  -18.9038   27.7309 H   0  0  0  0  0  0  0  0  0  0  0  0
   -6.2787  -18.2661   29.3284 H   0  0  0  0  0  0  0  0  0  0  0  0
   -6.8430  -17.9175   31.7235 H   0  0  0  0  0  0  0  0  0  0  0  0
   -7.4574  -15.8498   32.5733 H   0  0  0  0  0  0  0  0  0  0  0  0
   -7.4552  -13.9280   30.8471 H   0  0  0  0  0  0  0  0  0  0  0  0
   -6.3887  -14.3527   28.8603 H   0  0  0  0  0  0  0  0  0  0  0  0
  1  2  1  0
  2  3  1  0
  3  4  1  0
  4  5  2  0
  5  6  1  0
  6  7  2  0
  7  8  1  0
  2  9  1  0
  9 10  2  0
  9 11  1  0
 11 12  1  0
 12 13  1  0
 13 14  2  0
 14 15  1  0
 15 16  2  0
 16 17  1  0
 17 18  2  0
 18 19  1  0
 19 20  2  0
 20 21  1  0
 21 22  1  0
 22 23  2  0
 23 24  1  0
 24 25  2  0
 25 26  1  0
 26 27  2  0
  8  4  1  0
 21 13  1  0
 27 22  1  0
 20 15  1  0
  1 28  1  0
  1 29  1  0
  1 30  1  0
  3 31  1  0
  3 32  1  0
  5 33  1  0
  6 34  1  0
  7 35  1  0
 11 36  1  0
 11 37  1  0
 16 38  1  0
 17 39  1  0
 18 40  1  0
 19 41  1  0
 23 42  1  0
 24 43  1  0
 25 44  1  0
 26 45  1  0
 27 46  1  0
M  END
>  <Energy>  (241) 
915.04806324175809

>  <compound_id>  (241) 
4874

>  <target_id>  (241) 
1

>  <reference_id>  (241) 
94

>  <inspiration_ids>  (241) 
[94, 66]

>  <energy_score>  (241) 
800.8641525142143

>  <distance_score>  (241) 
13.405142337282635

>  <path>  (241) 
/opt/xchem-fragalysis-2/maxwin/BulkDock/SCRATCH/511016/C4874-P94/C4874-P94.minimised.mol

>  <scratch_subdir>  (241) 
/opt/xchem-fragalysis-2/maxwin/BulkDock/SCRATCH/511016/C4874-P94

>  <fragmenstein_runtime>  (241) 
31.942779064178467

>  <fragmenstein_outcome>  (241) 
too moved

>  <fragmenstein_mode>  (241) 
expansion

>  <fragmenstein_error>  (241) 


$$$$
C4874-P66
     RDKit          3D

 46 49  0  0  0  0  0  0  0  0999 V2000
    1.0559  -12.9626   26.7093 C   0  0  0  0  0  0  0  0  0  0  0  0
    0.6067  -14.3352   26.7754 N   0  0  0  0  0  0  0  0  0  0  0  0
    2.5214  -14.1972   27.2332 C   0  0  0  0  0  0  0  0  0  0  0  0
    3.9927  -14.1670   25.8551 C   0  0  0  0  0  0  0  0  0  0  0  0
    5.3305  -13.3913   25.7738 C   0  0  0  0  0  0  0  0  0  0  0  0
    6.1854  -13.3905   24.6221 C   0  0  0  0  0  0  0  0  0  0  0  0
    5.5466  -13.9076   23.5481 C   0  0  0  0  0  0  0  0  0  0  0  0
    3.8944  -14.0972   23.8458 S   0  0  0  0  0  0  0  0  0  0  0  0
   -1.0188  -15.2002   27.8113 C   0  0  0  0  0  0  0  0  0  0  0  0
   -1.7391  -14.6230   28.5997 O   0  0  0  0  0  0  0  0  0  0  0  0
   -1.8313  -17.2281   27.4483 C   0  0  0  0  0  0  0  0  0  0  0  0
   -3.5024  -19.2221   27.5455 S   0  0  0  0  0  0  0  0  0  0  0  0
   -5.8050  -19.5437   28.2474 C   0  0  0  0  0  0  0  0  0  0  0  0
   -6.5480  -21.0256   27.7388 N   0  0  0  0  0  0  0  0  0  0  0  0
   -7.4178  -22.1490   29.0612 C   0  0  0  0  0  0  0  0  0  0  0  0
   -8.6368  -23.6184   28.8879 C   0  0  0  0  0  0  0  0  0  0  0  0
   -9.0528  -24.4285   30.5125 C   0  0  0  0  0  0  0  0  0  0  0  0
   -8.6513  -23.7735   32.1786 C   0  0  0  0  0  0  0  0  0  0  0  0
   -7.6552  -22.2264   32.5728 C   0  0  0  0  0  0  0  0  0  0  0  0
   -7.2184  -21.1705   31.0920 C   0  0  0  0  0  0  0  0  0  0  0  0
   -7.0656  -19.4319   29.7481 N   0  0  0  0  0  0  0  0  0  0  0  0
   -8.6717  -19.5448   28.5047 C   0  0  0  0  0  0  0  0  0  0  0  0
   -9.6630  -20.9457   27.8519 C   0  0  0  0  0  0  0  0  0  0  0  0
  -10.8751  -22.1808   27.9081 C   0  0  0  0  0  0  0  0  0  0  0  0
  -11.6282  -22.4481   28.9693 C   0  0  0  0  0  0  0  0  0  0  0  0
  -11.3681  -21.4676   29.8062 C   0  0  0  0  0  0  0  0  0  0  0  0
  -10.1407  -20.4631   29.4653 C   0  0  0  0  0  0  0  0  0  0  0  0
    0.9445  -11.8856   26.9723 H   0  0  0  0  0  0  0  0  0  0  0  0
    1.5826  -12.9800   25.7539 H   0  0  0  0  0  0  0  0  0  0  0  0
    0.1813  -12.8581   26.1627 H   0  0  0  0  0  0  0  0  0  0  0  0
    2.7454  -13.2524   27.6127 H   0  0  0  0  0  0  0  0  0  0  0  0
    2.7684  -15.0606   27.8779 H   0  0  0  0  0  0  0  0  0  0  0  0
    5.6854  -12.8815   26.6750 H   0  0  0  0  0  0  0  0  0  0  0  0
    7.1939  -12.9975   24.6038 H   0  0  0  0  0  0  0  0  0  0  0  0
    5.9292  -14.0215   22.5433 H   0  0  0  0  0  0  0  0  0  0  0  0
   -2.4866  -16.9439   26.6340 H   0  0  0  0  0  0  0  0  0  0  0  0
   -0.9981  -17.8292   27.0609 H   0  0  0  0  0  0  0  0  0  0  0  0
   -9.1972  -23.8107   27.9827 H   0  0  0  0  0  0  0  0  0  0  0  0
   -9.7894  -25.2362   30.4789 H   0  0  0  0  0  0  0  0  0  0  0  0
   -9.1801  -24.2479   33.0105 H   0  0  0  0  0  0  0  0  0  0  0  0
   -7.9365  -21.6290   33.4375 H   0  0  0  0  0  0  0  0  0  0  0  0
   -9.9459  -20.6980   26.8620 H   0  0  0  0  0  0  0  0  0  0  0  0
  -11.1268  -22.7108   26.9882 H   0  0  0  0  0  0  0  0  0  0  0  0
  -12.2621  -23.2846   29.1289 H   0  0  0  0  0  0  0  0  0  0  0  0
  -11.7939  -21.4771   30.8112 H   0  0  0  0  0  0  0  0  0  0  0  0
  -10.2322  -20.3631   30.6142 H   0  0  0  0  0  0  0  0  0  0  0  0
  1  2  1  0
  2  3  1  0
  3  4  1  0
  4  5  2  0
  5  6  1  0
  6  7  2  0
  7  8  1  0
  2  9  1  0
  9 10  2  0
  9 11  1  0
 11 12  1  0
 12 13  1  0
 13 14  2  0
 14 15  1  0
 15 16  2  0
 16 17  1  0
 17 18  2  0
 18 19  1  0
 19 20  2  0
 20 21  1  0
 21 22  1  0
 22 23  2  0
 23 24  1  0
 24 25  2  0
 25 26  1  0
 26 27  2  0
  8  4  1  0
 21 13  1  0
 27 22  1  0
 20 15  1  0
  1 28  1  0
  1 29  1  0
  1 30  1  0
  3 31  1  0
  3 32  1  0
  5 33  1  0
  6 34  1  0
  7 35  1  0
 11 36  1  0
 11 37  1  0
 16 38  1  0
 17 39  1  0
 18 40  1  0
 19 41  1  0
 23 42  1  0
 24 43  1  0
 25 44  1  0
 26 45  1  0
 27 46  1  0
M  END
>  <Energy>  (242) 
3007.7049838170851

>  <compound_id>  (242) 
4874

>  <target_id>  (242) 
1

>  <reference_id>  (242) 
66

>  <inspiration_ids>  (242) 
[94, 66]

>  <energy_score>  (242) 
2893.52107308955

>  <distance_score>  (242) 
13.237735993683033

>  <path>  (242) 
/opt/xchem-fragalysis-2/maxwin/BulkDock/SCRATCH/511016/C4874-P66/C4874-P66.minimised.mol

>  <scratch_subdir>  (242) 
/opt/xchem-fragalysis-2/maxwin/BulkDock/SCRATCH/511016/C4874-P66

>  <fragmenstein_runtime>  (242) 
31.451078176498413

>  <fragmenstein_outcome>  (242) 
too moved

>  <fragmenstein_mode>  (242) 
expansion

>  <fragmenstein_error>  (242) 


$$$$
C4875-P94
     RDKit          3D

 40 43  0  0  0  0  0  0  0  0999 V2000
    4.6867   -9.9583   17.0069 C   0  0  0  0  0  0  0  0  0  0  0  0
    5.3460  -10.3646   18.1429 C   0  0  0  0  0  0  0  0  0  0  0  0
    4.2840  -11.0801   19.2821 S   0  0  0  0  0  0  0  0  0  0  0  0
    2.9142  -10.8972   18.2547 C   0  0  0  0  0  0  0  0  0  0  0  0
    1.5033  -11.2499   18.7409 C   0  0  0  0  0  0  0  0  0  0  0  0
    1.0246  -12.6847   18.6015 N   0  0  0  0  0  0  0  0  0  0  0  0
   -0.4578  -12.8147   18.9949 C   0  0  0  0  0  0  0  0  0  0  0  0
   -1.3070  -14.1624   19.0368 C   0  0  0  0  0  0  0  0  0  0  0  0
   -2.7353  -14.1033   18.9792 C   0  0  0  0  0  0  0  0  0  0  0  0
   -3.6443  -15.2221   19.2427 C   0  0  0  0  0  0  0  0  0  0  0  0
   -3.1688  -16.4832   19.5877 C   0  0  0  0  0  0  0  0  0  0  0  0
   -4.0351  -17.6137   19.9965 N   0  0  0  0  0  0  0  0  0  0  0  0
   -3.6555  -18.9511   19.9143 C   0  0  0  0  0  0  0  0  0  0  0  0
   -4.4985  -19.7930   20.4719 N   0  0  0  0  0  0  0  0  0  0  0  0
   -5.5162  -19.0208   20.9460 C   0  0  0  0  0  0  0  0  0  0  0  0
   -6.6368  -19.4399   21.6931 C   0  0  0  0  0  0  0  0  0  0  0  0
   -7.5727  -18.4931   22.1011 C   0  0  0  0  0  0  0  0  0  0  0  0
   -7.3953  -17.1560   21.7631 C   0  0  0  0  0  0  0  0  0  0  0  0
   -6.2787  -16.7199   21.0202 C   0  0  0  0  0  0  0  0  0  0  0  0
   -5.3128  -17.6630   20.6219 C   0  0  0  0  0  0  0  0  0  0  0  0
   -1.7468  -16.5825   19.5277 C   0  0  0  0  0  0  0  0  0  0  0  0
   -0.8429  -15.4524   19.3004 C   0  0  0  0  0  0  0  0  0  0  0  0
    3.2908  -10.2665   17.0736 C   0  0  0  0  0  0  0  0  0  0  0  0
    5.1735   -9.4871   16.1610 H   0  0  0  0  0  0  0  0  0  0  0  0
    6.4003  -10.2945   18.3682 H   0  0  0  0  0  0  0  0  0  0  0  0
    0.8061  -10.6167   18.1767 H   0  0  0  0  0  0  0  0  0  0  0  0
    1.4100  -10.9571   19.7945 H   0  0  0  0  0  0  0  0  0  0  0  0
    1.5593  -13.2482   19.2673 H   0  0  0  0  0  0  0  0  0  0  0  0
   -0.5580  -12.3914   20.0025 H   0  0  0  0  0  0  0  0  0  0  0  0
   -1.0006  -12.1590   18.3023 H   0  0  0  0  0  0  0  0  0  0  0  0
   -3.2004  -13.1374   18.7654 H   0  0  0  0  0  0  0  0  0  0  0  0
   -4.7095  -15.0270   19.1491 H   0  0  0  0  0  0  0  0  0  0  0  0
   -2.7335  -19.2473   19.4320 H   0  0  0  0  0  0  0  0  0  0  0  0
   -6.7527  -20.4904   21.9388 H   0  0  0  0  0  0  0  0  0  0  0  0
   -8.4499  -18.7983   22.6605 H   0  0  0  0  0  0  0  0  0  0  0  0
   -8.1437  -16.4261   22.0688 H   0  0  0  0  0  0  0  0  0  0  0  0
   -6.1969  -15.6742   20.7589 H   0  0  0  0  0  0  0  0  0  0  0  0
   -1.2527  -17.5320   19.7425 H   0  0  0  0  0  0  0  0  0  0  0  0
    0.2307  -15.6284   19.3787 H   0  0  0  0  0  0  0  0  0  0  0  0
    2.5823  -10.0304   16.2883 H   0  0  0  0  0  0  0  0  0  0  0  0
  1  2  2  0
  2  3  1  0
  3  4  1  0
  4  5  1  0
  5  6  1  0
  6  7  1  0
  7  8  1  0
  8  9  2  0
  9 10  1  0
 10 11  2  0
 11 12  1  0
 12 13  1  0
 13 14  2  0
 14 15  1  0
 15 16  2  0
 16 17  1  0
 17 18  2  0
 18 19  1  0
 19 20  2  0
 11 21  1  0
 21 22  2  0
  4 23  2  0
 23  1  1  0
 22  8  1  0
 20 12  1  0
 20 15  1  0
  1 24  1  0
  2 25  1  0
  5 26  1  0
  5 27  1  0
  6 28  1  0
  7 29  1  0
  7 30  1  0
  9 31  1  0
 10 32  1  0
 13 33  1  0
 16 34  1  0
 17 35  1  0
 18 36  1  0
 19 37  1  0
 21 38  1  0
 22 39  1  0
 23 40  1  0
M  END
>  <Energy>  (243) 
88.497897801976166

>  <compound_id>  (243) 
4875

>  <target_id>  (243) 
1

>  <reference_id>  (243) 
94

>  <inspiration_ids>  (243) 
[94, 66]

>  <energy_score>  (243) 
-9.616038662147503

>  <distance_score>  (243) 
14.474272265541567

>  <path>  (243) 
/opt/xchem-fragalysis-2/maxwin/BulkDock/SCRATCH/511016/C4875-P94/C4875-P94.minimised.mol

>  <scratch_subdir>  (243) 
/opt/xchem-fragalysis-2/maxwin/BulkDock/SCRATCH/511016/C4875-P94

>  <fragmenstein_runtime>  (243) 
30.08462691307068

>  <fragmenstein_outcome>  (243) 
too moved

>  <fragmenstein_mode>  (243) 
expansion

>  <fragmenstein_error>  (243) 


$$$$
C4875-P66
     RDKit          3D

 40 43  0  0  0  0  0  0  0  0999 V2000
    6.7103  -12.3666   23.1984 C   0  0  0  0  0  0  0  0  0  0  0  0
    7.4055  -11.9978   24.3222 C   0  0  0  0  0  0  0  0  0  0  0  0
    6.6784  -12.6026   25.7553 S   0  0  0  0  0  0  0  0  0  0  0  0
    5.3366  -13.3116   24.9167 C   0  0  0  0  0  0  0  0  0  0  0  0
    3.9246  -14.0978   25.5380 C   0  0  0  0  0  0  0  0  0  0  0  0
    2.6510  -13.9427   26.9327 N   0  0  0  0  0  0  0  0  0  0  0  0
    0.7481  -13.9468   26.7220 C   0  0  0  0  0  0  0  0  0  0  0  0
   -0.6703  -14.9967   27.9940 C   0  0  0  0  0  0  0  0  0  0  0  0
   -1.9760  -14.8754   28.3840 C   0  0  0  0  0  0  0  0  0  0  0  0
   -3.1539  -16.0247   28.0455 C   0  0  0  0  0  0  0  0  0  0  0  0
   -3.5709  -17.2768   27.4460 C   0  0  0  0  0  0  0  0  0  0  0  0
   -5.2646  -18.2108   27.4343 N   0  0  0  0  0  0  0  0  0  0  0  0
   -6.9387  -17.5251   27.7636 C   0  0  0  0  0  0  0  0  0  0  0  0
   -7.7416  -18.4543   27.3359 N   0  0  0  0  0  0  0  0  0  0  0  0
   -6.8375  -19.9646   26.9192 C   0  0  0  0  0  0  0  0  0  0  0  0
   -6.9127  -21.4158   27.1053 C   0  0  0  0  0  0  0  0  0  0  0  0
   -6.1083  -22.2614   26.3224 C   0  0  0  0  0  0  0  0  0  0  0  0
   -5.3631  -21.7381   25.3028 C   0  0  0  0  0  0  0  0  0  0  0  0
   -5.1359  -20.3716   25.3299 C   0  0  0  0  0  0  0  0  0  0  0  0
   -5.7050  -19.5619   26.3946 C   0  0  0  0  0  0  0  0  0  0  0  0
   -2.2897  -17.6562   27.0419 C   0  0  0  0  0  0  0  0  0  0  0  0
   -1.0793  -16.8244   27.6450 C   0  0  0  0  0  0  0  0  0  0  0  0
    5.5580  -13.1451   23.5358 C   0  0  0  0  0  0  0  0  0  0  0  0
    7.0093  -12.1137   22.1887 H   0  0  0  0  0  0  0  0  0  0  0  0
    8.3217  -11.4267   24.3815 H   0  0  0  0  0  0  0  0  0  0  0  0
    3.3801  -13.8756   24.6110 H   0  0  0  0  0  0  0  0  0  0  0  0
    4.2999  -15.0904   25.6378 H   0  0  0  0  0  0  0  0  0  0  0  0
    2.7543  -12.9708   27.1347 H   0  0  0  0  0  0  0  0  0  0  0  0
    0.6273  -12.8727   26.8160 H   0  0  0  0  0  0  0  0  0  0  0  0
    0.8300  -13.7667   25.6405 H   0  0  0  0  0  0  0  0  0  0  0  0
   -2.2645  -14.4715   29.3497 H   0  0  0  0  0  0  0  0  0  0  0  0
   -2.4669  -15.6797   27.1209 H   0  0  0  0  0  0  0  0  0  0  0  0
   -7.0047  -16.7765   28.5571 H   0  0  0  0  0  0  0  0  0  0  0  0
   -7.6691  -21.9057   27.6882 H   0  0  0  0  0  0  0  0  0  0  0  0
   -6.2233  -23.3123   26.3388 H   0  0  0  0  0  0  0  0  0  0  0  0
   -4.8955  -22.3720   24.5576 H   0  0  0  0  0  0  0  0  0  0  0  0
   -4.4063  -20.0073   24.6285 H   0  0  0  0  0  0  0  0  0  0  0  0
   -2.0313  -18.5845   26.5430 H   0  0  0  0  0  0  0  0  0  0  0  0
   -0.1693  -17.4835   27.5395 H   0  0  0  0  0  0  0  0  0  0  0  0
    4.8672  -13.5342   22.7943 H   0  0  0  0  0  0  0  0  0  0  0  0
  1  2  2  0
  2  3  1  0
  3  4  1  0
  4  5  1  0
  5  6  1  0
  6  7  1  0
  7  8  1  0
  8  9  2  0
  9 10  1  0
 10 11  2  0
 11 12  1  0
 12 13  1  0
 13 14  2  0
 14 15  1  0
 15 16  2  0
 16 17  1  0
 17 18  2  0
 18 19  1  0
 19 20  2  0
 11 21  1  0
 21 22  2  0
  4 23  2  0
 23  1  1  0
 22  8  1  0
 20 12  1  0
 20 15  1  0
  1 24  1  0
  2 25  1  0
  5 26  1  0
  5 27  1  0
  6 28  1  0
  7 29  1  0
  7 30  1  0
  9 31  1  0
 10 32  1  0
 13 33  1  0
 16 34  1  0
 17 35  1  0
 18 36  1  0
 19 37  1  0
 21 38  1  0
 22 39  1  0
 23 40  1  0
M  END
>  <Energy>  (244) 
961.06129279337438

>  <compound_id>  (244) 
4875

>  <target_id>  (244) 
1

>  <reference_id>  (244) 
66

>  <inspiration_ids>  (244) 
[94, 66]

>  <energy_score>  (244) 
862.9473563292368

>  <distance_score>  (244) 
13.32049102257569

>  <path>  (244) 
/opt/xchem-fragalysis-2/maxwin/BulkDock/SCRATCH/511016/C4875-P66/C4875-P66.minimised.mol

>  <scratch_subdir>  (244) 
/opt/xchem-fragalysis-2/maxwin/BulkDock/SCRATCH/511016/C4875-P66

>  <fragmenstein_runtime>  (244) 
18.89184856414795

>  <fragmenstein_outcome>  (244) 
too moved

>  <fragmenstein_mode>  (244) 
expansion

>  <fragmenstein_error>  (244) 


$$$$
C4883-P94
     RDKit          3D

 41 43  0  0  0  0  0  0  0  0999 V2000
   -0.9261  -14.9063   22.2299 O   0  0  0  0  0  0  0  0  0  0  0  0
   -0.8984  -14.6968   23.3774 C   0  0  0  0  0  0  0  0  0  0  0  0
   -2.7352  -15.2054   24.2315 C   0  0  0  0  0  0  0  0  0  0  0  0
   -4.7137  -15.4364   23.7135 C   0  0  0  0  0  0  0  0  0  0  0  0
   -6.5546  -16.0391   24.1326 C   0  0  0  0  0  0  0  0  0  0  0  0
   -7.4507  -16.8717   25.3438 N   0  0  0  0  0  0  0  0  0  0  0  0
   -8.6428  -16.3670   25.9393 C   0  0  0  0  0  0  0  0  0  0  0  0
   -8.9034  -16.8593   27.1549 N   0  0  0  0  0  0  0  0  0  0  0  0
   -7.8584  -17.6769   27.5045 C   0  0  0  0  0  0  0  0  0  0  0  0
   -7.5892  -18.8555   28.1677 C   0  0  0  0  0  0  0  0  0  0  0  0
   -6.7874  -20.0193   27.3908 C   0  0  0  0  0  0  0  0  0  0  0  0
   -5.5751  -19.8952   26.9491 C   0  0  0  0  0  0  0  0  0  0  0  0
   -5.6321  -18.6042   27.0686 C   0  0  0  0  0  0  0  0  0  0  0  0
   -6.9645  -17.8363   26.5145 C   0  0  0  0  0  0  0  0  0  0  0  0
    0.7581  -14.1952   24.0526 N   0  0  0  0  0  0  0  0  0  0  0  0
    2.5871  -14.0814   23.2347 C   0  0  0  0  0  0  0  0  0  0  0  0
    3.2571  -14.3213   21.3608 C   0  0  0  0  0  0  0  0  0  0  0  0
    4.6773  -14.6132   20.6308 C   0  0  0  0  0  0  0  0  0  0  0  0
    5.5250  -15.7592   20.7341 C   0  0  0  0  0  0  0  0  0  0  0  0
    6.7136  -15.6216   20.0365 C   0  0  0  0  0  0  0  0  0  0  0  0
    6.8253  -14.1385   19.2023 S   0  0  0  0  0  0  0  0  0  0  0  0
    5.2672  -13.7037   19.7434 C   0  0  0  0  0  0  0  0  0  0  0  0
   -2.5422  -16.0484   24.8703 H   0  0  0  0  0  0  0  0  0  0  0  0
   -2.9140  -15.4494   23.2588 H   0  0  0  0  0  0  0  0  0  0  0  0
   -5.0363  -14.4361   23.4328 H   0  0  0  0  0  0  0  0  0  0  0  0
   -4.7021  -15.9048   22.7082 H   0  0  0  0  0  0  0  0  0  0  0  0
   -6.8414  -16.6851   23.2881 H   0  0  0  0  0  0  0  0  0  0  0  0
   -7.1852  -15.1399   24.0518 H   0  0  0  0  0  0  0  0  0  0  0  0
   -9.2291  -15.6169   25.4259 H   0  0  0  0  0  0  0  0  0  0  0  0
   -8.4914  -19.2968   28.3878 H   0  0  0  0  0  0  0  0  0  0  0  0
   -7.2381  -21.0253   27.3323 H   0  0  0  0  0  0  0  0  0  0  0  0
   -4.7969  -20.6255   27.0195 H   0  0  0  0  0  0  0  0  0  0  0  0
   -5.0401  -18.1349   27.8736 H   0  0  0  0  0  0  0  0  0  0  0  0
    0.6418  -13.9564   25.0170 H   0  0  0  0  0  0  0  0  0  0  0  0
    3.3498  -14.6232   23.8193 H   0  0  0  0  0  0  0  0  0  0  0  0
    2.8466  -13.0355   23.5162 H   0  0  0  0  0  0  0  0  0  0  0  0
    2.5425  -14.8165   20.6953 H   0  0  0  0  0  0  0  0  0  0  0  0
    3.3631  -13.2551   21.1494 H   0  0  0  0  0  0  0  0  0  0  0  0
    5.2999  -16.6332   21.3316 H   0  0  0  0  0  0  0  0  0  0  0  0
    7.5270  -16.3316   19.9814 H   0  0  0  0  0  0  0  0  0  0  0  0
    4.8697  -12.7639   19.4075 H   0  0  0  0  0  0  0  0  0  0  0  0
  1  2  2  0
  2  3  1  0
  3  4  1  0
  4  5  1  0
  5  6  1  0
  6  7  1  0
  7  8  2  0
  8  9  1  0
  9 10  2  0
 10 11  1  0
 11 12  2  0
 12 13  1  0
 13 14  2  0
  2 15  1  0
 15 16  1  0
 16 17  1  0
 17 18  1  0
 18 19  1  0
 19 20  2  0
 20 21  1  0
 21 22  1  0
 14  6  1  0
 22 18  2  0
 14  9  1  0
  3 23  1  0
  3 24  1  0
  4 25  1  0
  4 26  1  0
  5 27  1  0
  5 28  1  0
  7 29  1  0
 10 30  1  0
 11 31  1  0
 12 32  1  0
 13 33  1  0
 15 34  1  0
 16 35  1  0
 16 36  1  0
 17 37  1  0
 17 38  1  0
 19 39  1  0
 20 40  1  0
 22 41  1  0
M  END
>  <Energy>  (245) 
805.19026539338802

>  <compound_id>  (245) 
4883

>  <target_id>  (245) 
1

>  <reference_id>  (245) 
94

>  <inspiration_ids>  (245) 
[94, 66]

>  <energy_score>  (245) 
767.6336192814701

>  <distance_score>  (245) 
12.604992757178675

>  <path>  (245) 
/opt/xchem-fragalysis-2/maxwin/BulkDock/SCRATCH/511016/C4883-P94/C4883-P94.minimised.mol

>  <scratch_subdir>  (245) 
/opt/xchem-fragalysis-2/maxwin/BulkDock/SCRATCH/511016/C4883-P94

>  <fragmenstein_runtime>  (245) 
24.12276577949524

>  <fragmenstein_outcome>  (245) 
too moved

>  <fragmenstein_mode>  (245) 
expansion

>  <fragmenstein_error>  (245) 


$$$$
C4883-P66
     RDKit          3D

 41 43  0  0  0  0  0  0  0  0999 V2000
   -4.4433   -9.1907   22.3536 O   0  0  0  0  0  0  0  0  0  0  0  0
   -4.1992  -10.2768   22.1295 C   0  0  0  0  0  0  0  0  0  0  0  0
   -5.8882  -11.6052   22.8461 C   0  0  0  0  0  0  0  0  0  0  0  0
   -6.8615  -12.9826   23.1249 C   0  0  0  0  0  0  0  0  0  0  0  0
   -7.8696  -13.0596   24.3992 C   0  0  0  0  0  0  0  0  0  0  0  0
   -8.2759  -14.3814   24.9309 N   0  0  0  0  0  0  0  0  0  0  0  0
   -7.7277  -15.6015   24.6220 C   0  0  0  0  0  0  0  0  0  0  0  0
   -7.9965  -16.5138   25.5249 N   0  0  0  0  0  0  0  0  0  0  0  0
   -8.9149  -15.9422   26.3519 C   0  0  0  0  0  0  0  0  0  0  0  0
   -9.5858  -16.5048   27.4459 C   0  0  0  0  0  0  0  0  0  0  0  0
  -10.6150  -15.7885   28.0504 C   0  0  0  0  0  0  0  0  0  0  0  0
  -10.8922  -14.4900   27.6329 C   0  0  0  0  0  0  0  0  0  0  0  0
  -10.1570  -13.8688   26.6081 C   0  0  0  0  0  0  0  0  0  0  0  0
   -9.1763  -14.6292   25.9626 C   0  0  0  0  0  0  0  0  0  0  0  0
   -2.5198  -10.3932   21.4575 N   0  0  0  0  0  0  0  0  0  0  0  0
   -1.1833   -9.0726   21.0693 C   0  0  0  0  0  0  0  0  0  0  0  0
    0.4382   -7.8747   21.2308 C   0  0  0  0  0  0  0  0  0  0  0  0
    1.3199   -6.0854   21.1126 C   0  0  0  0  0  0  0  0  0  0  0  0
    2.4531   -5.3092   20.0674 C   0  0  0  0  0  0  0  0  0  0  0  0
    2.7444   -3.9549   20.1164 C   0  0  0  0  0  0  0  0  0  0  0  0
    1.9719   -3.2980   21.4554 S   0  0  0  0  0  0  0  0  0  0  0  0
    0.9778   -4.7854   21.5669 C   0  0  0  0  0  0  0  0  0  0  0  0
   -6.8319  -11.0602   23.1365 H   0  0  0  0  0  0  0  0  0  0  0  0
   -5.5163  -11.8802   23.9238 H   0  0  0  0  0  0  0  0  0  0  0  0
   -7.5028  -13.1096   22.2446 H   0  0  0  0  0  0  0  0  0  0  0  0
   -6.1732  -13.7899   23.3126 H   0  0  0  0  0  0  0  0  0  0  0  0
   -8.7962  -12.5369   24.1364 H   0  0  0  0  0  0  0  0  0  0  0  0
   -7.4080  -12.5376   25.2450 H   0  0  0  0  0  0  0  0  0  0  0  0
   -7.0800  -15.7620   23.7707 H   0  0  0  0  0  0  0  0  0  0  0  0
   -9.3160  -17.4951   27.7754 H   0  0  0  0  0  0  0  0  0  0  0  0
  -11.1991  -16.2297   28.8528 H   0  0  0  0  0  0  0  0  0  0  0  0
  -11.6845  -13.9305   28.1282 H   0  0  0  0  0  0  0  0  0  0  0  0
  -10.3695  -12.8454   26.3165 H   0  0  0  0  0  0  0  0  0  0  0  0
   -2.3715  -11.3555   21.1906 H   0  0  0  0  0  0  0  0  0  0  0  0
   -0.4990   -9.8582   21.4210 H   0  0  0  0  0  0  0  0  0  0  0  0
   -1.6498   -8.4819   21.8665 H   0  0  0  0  0  0  0  0  0  0  0  0
    0.7032   -8.1415   20.1965 H   0  0  0  0  0  0  0  0  0  0  0  0
    1.0390   -8.3574   21.9858 H   0  0  0  0  0  0  0  0  0  0  0  0
    2.9645   -5.8804   19.2989 H   0  0  0  0  0  0  0  0  0  0  0  0
    3.4389   -3.3966   19.5067 H   0  0  0  0  0  0  0  0  0  0  0  0
    0.2871   -4.2923   20.9134 H   0  0  0  0  0  0  0  0  0  0  0  0
  1  2  2  0
  2  3  1  0
  3  4  1  0
  4  5  1  0
  5  6  1  0
  6  7  1  0
  7  8  2  0
  8  9  1  0
  9 10  2  0
 10 11  1  0
 11 12  2  0
 12 13  1  0
 13 14  2  0
  2 15  1  0
 15 16  1  0
 16 17  1  0
 17 18  1  0
 18 19  1  0
 19 20  2  0
 20 21  1  0
 21 22  1  0
 14  6  1  0
 22 18  2  0
 14  9  1  0
  3 23  1  0
  3 24  1  0
  4 25  1  0
  4 26  1  0
  5 27  1  0
  5 28  1  0
  7 29  1  0
 10 30  1  0
 11 31  1  0
 12 32  1  0
 13 33  1  0
 15 34  1  0
 16 35  1  0
 16 36  1  0
 17 37  1  0
 17 38  1  0
 19 39  1  0
 20 40  1  0
 22 41  1  0
M  END
>  <Energy>  (246) 
742.50274586889793

>  <compound_id>  (246) 
4883

>  <target_id>  (246) 
1

>  <reference_id>  (246) 
66

>  <inspiration_ids>  (246) 
[94, 66]

>  <energy_score>  (246) 
704.946099756953

>  <distance_score>  (246) 
12.41547944793347

>  <path>  (246) 
/opt/xchem-fragalysis-2/maxwin/BulkDock/SCRATCH/511016/C4883-P66/C4883-P66.minimised.mol

>  <scratch_subdir>  (246) 
/opt/xchem-fragalysis-2/maxwin/BulkDock/SCRATCH/511016/C4883-P66

>  <fragmenstein_runtime>  (246) 
20.79057550430298

>  <fragmenstein_outcome>  (246) 
too moved

>  <fragmenstein_mode>  (246) 
expansion

>  <fragmenstein_error>  (246) 


$$$$
C4884-P94
     RDKit          3D

 39 41  0  0  0  0  0  0  0  0999 V2000
    0.1574  -14.3007   24.2745 O   0  0  0  0  0  0  0  0  0  0  0  0
    0.9214  -13.8734   25.1339 C   0  0  0  0  0  0  0  0  0  0  0  0
    2.5120  -13.2301   24.3132 C   0  0  0  0  0  0  0  0  0  0  0  0
    3.4861  -13.2948   23.1657 N   0  0  0  0  0  0  0  0  0  0  0  0
    4.9344  -13.2387   23.1452 C   0  0  0  0  0  0  0  0  0  0  0  0
    5.7261  -13.2091   24.0421 O   0  0  0  0  0  0  0  0  0  0  0  0
    5.5492  -13.0890   21.7911 C   0  0  0  0  0  0  0  0  0  0  0  0
    6.6599  -12.1630   21.5584 C   0  0  0  0  0  0  0  0  0  0  0  0
    7.0908  -12.1122   20.2521 C   0  0  0  0  0  0  0  0  0  0  0  0
    6.2155  -13.2044   19.2785 S   0  0  0  0  0  0  0  0  0  0  0  0
    5.2134  -13.6910   20.5972 C   0  0  0  0  0  0  0  0  0  0  0  0
    0.8071  -13.8965   26.6231 N   0  0  0  0  0  0  0  0  0  0  0  0
   -0.5946  -14.7703   27.8474 C   0  0  0  0  0  0  0  0  0  0  0  0
    0.0069  -15.5628   29.4801 C   0  0  0  0  0  0  0  0  0  0  0  0
   -0.0860  -15.8548   31.2430 C   0  0  0  0  0  0  0  0  0  0  0  0
   -0.9947  -15.4695   32.1329 N   0  0  0  0  0  0  0  0  0  0  0  0
   -1.2998  -16.5869   32.9142 C   0  0  0  0  0  0  0  0  0  0  0  0
   -2.4212  -16.8651   33.7212 C   0  0  0  0  0  0  0  0  0  0  0  0
   -2.6411  -18.1794   34.1643 C   0  0  0  0  0  0  0  0  0  0  0  0
   -1.7351  -19.1924   33.8509 C   0  0  0  0  0  0  0  0  0  0  0  0
   -0.5721  -18.9210   33.1128 C   0  0  0  0  0  0  0  0  0  0  0  0
   -0.3882  -17.6047   32.6601 C   0  0  0  0  0  0  0  0  0  0  0  0
    0.5237  -17.0180   31.7785 N   0  0  0  0  0  0  0  0  0  0  0  0
    2.2301  -12.1959   24.2188 H   0  0  0  0  0  0  0  0  0  0  0  0
    3.2607  -13.6934   24.9624 H   0  0  0  0  0  0  0  0  0  0  0  0
    3.1447  -13.3915   22.2164 H   0  0  0  0  0  0  0  0  0  0  0  0
    7.1029  -11.5670   22.3487 H   0  0  0  0  0  0  0  0  0  0  0  0
    7.8879  -11.5124   19.8337 H   0  0  0  0  0  0  0  0  0  0  0  0
    4.4413  -14.4265   20.4198 H   0  0  0  0  0  0  0  0  0  0  0  0
    1.6354  -13.5435   27.0039 H   0  0  0  0  0  0  0  0  0  0  0  0
   -1.3050  -15.6080   27.5648 H   0  0  0  0  0  0  0  0  0  0  0  0
   -1.6449  -14.4503   27.9011 H   0  0  0  0  0  0  0  0  0  0  0  0
   -1.0378  -15.4146   29.7139 H   0  0  0  0  0  0  0  0  0  0  0  0
    0.7086  -16.3353   29.1548 H   0  0  0  0  0  0  0  0  0  0  0  0
   -3.1439  -16.0837   33.9273 H   0  0  0  0  0  0  0  0  0  0  0  0
   -3.5337  -18.4060   34.7427 H   0  0  0  0  0  0  0  0  0  0  0  0
   -1.9290  -20.2065   34.1939 H   0  0  0  0  0  0  0  0  0  0  0  0
    0.1247  -19.7126   32.8610 H   0  0  0  0  0  0  0  0  0  0  0  0
    1.2194  -17.5453   31.2790 H   0  0  0  0  0  0  0  0  0  0  0  0
  1  2  2  0
  2  3  1  0
  3  4  1  0
  4  5  1  0
  5  6  2  0
  5  7  1  0
  7  8  1  0
  8  9  2  0
  9 10  1  0
 10 11  1  0
  2 12  1  0
 12 13  1  0
 13 14  1  0
 14 15  1  0
 15 16  2  0
 16 17  1  0
 17 18  2  0
 18 19  1  0
 19 20  2  0
 20 21  1  0
 21 22  2  0
 22 23  1  0
 11  7  2  0
 23 15  1  0
 22 17  1  0
  3 24  1  0
  3 25  1  0
  4 26  1  0
  8 27  1  0
  9 28  1  0
 11 29  1  0
 12 30  1  0
 13 31  1  0
 13 32  1  0
 14 33  1  0
 14 34  1  0
 18 35  1  0
 19 36  1  0
 20 37  1  0
 21 38  1  0
 23 39  1  0
M  END
>  <Energy>  (247) 
376.03040656777114

>  <compound_id>  (247) 
4884

>  <target_id>  (247) 
1

>  <reference_id>  (247) 
94

>  <inspiration_ids>  (247) 
[94, 66]

>  <energy_score>  (247) 
336.01925740934223

>  <distance_score>  (247) 
13.838193712414592

>  <path>  (247) 
/opt/xchem-fragalysis-2/maxwin/BulkDock/SCRATCH/511016/C4884-P94/C4884-P94.minimised.mol

>  <scratch_subdir>  (247) 
/opt/xchem-fragalysis-2/maxwin/BulkDock/SCRATCH/511016/C4884-P94

>  <fragmenstein_runtime>  (247) 
22.235586404800415

>  <fragmenstein_outcome>  (247) 
too moved

>  <fragmenstein_mode>  (247) 
expansion

>  <fragmenstein_error>  (247) 


$$$$
C4884-P66
     RDKit          3D

 39 41  0  0  0  0  0  0  0  0999 V2000
   -3.2530  -11.0498   20.8341 O   0  0  0  0  0  0  0  0  0  0  0  0
   -3.1007  -10.2844   21.7778 C   0  0  0  0  0  0  0  0  0  0  0  0
   -2.2375   -8.9644   21.6526 C   0  0  0  0  0  0  0  0  0  0  0  0
   -0.9001   -8.7332   21.0618 N   0  0  0  0  0  0  0  0  0  0  0  0
    0.2879   -8.1022   21.6142 C   0  0  0  0  0  0  0  0  0  0  0  0
    0.5076   -7.6852   22.7147 O   0  0  0  0  0  0  0  0  0  0  0  0
    1.4165   -7.8106   20.6349 C   0  0  0  0  0  0  0  0  0  0  0  0
    1.3671   -7.6372   19.1973 C   0  0  0  0  0  0  0  0  0  0  0  0
    2.5255   -7.1094   18.6510 C   0  0  0  0  0  0  0  0  0  0  0  0
    3.7007   -6.7672   19.8428 S   0  0  0  0  0  0  0  0  0  0  0  0
    2.6591   -7.3429   21.0799 C   0  0  0  0  0  0  0  0  0  0  0  0
   -3.6028  -10.4263   23.4050 N   0  0  0  0  0  0  0  0  0  0  0  0
   -4.4769  -11.9123   24.3560 C   0  0  0  0  0  0  0  0  0  0  0  0
   -6.2971  -12.0470   25.0381 C   0  0  0  0  0  0  0  0  0  0  0  0
   -6.9973  -13.4168   26.2221 C   0  0  0  0  0  0  0  0  0  0  0  0
   -7.2865  -13.5333   27.5288 N   0  0  0  0  0  0  0  0  0  0  0  0
   -8.3569  -14.4876   27.7673 C   0  0  0  0  0  0  0  0  0  0  0  0
   -9.0073  -14.9420   28.9120 C   0  0  0  0  0  0  0  0  0  0  0  0
  -10.2857  -15.5042   28.7614 C   0  0  0  0  0  0  0  0  0  0  0  0
  -10.7371  -15.9396   27.5354 C   0  0  0  0  0  0  0  0  0  0  0  0
   -9.9157  -15.8461   26.4236 C   0  0  0  0  0  0  0  0  0  0  0  0
   -8.7688  -15.0652   26.5930 C   0  0  0  0  0  0  0  0  0  0  0  0
   -7.7224  -14.7112   25.7592 N   0  0  0  0  0  0  0  0  0  0  0  0
   -2.1481   -8.5316   22.6418 H   0  0  0  0  0  0  0  0  0  0  0  0
   -2.8735   -8.2970   21.0717 H   0  0  0  0  0  0  0  0  0  0  0  0
   -0.7024   -9.0378   20.1100 H   0  0  0  0  0  0  0  0  0  0  0  0
    0.4942   -7.8587   18.5962 H   0  0  0  0  0  0  0  0  0  0  0  0
    2.7193   -6.8889   17.6107 H   0  0  0  0  0  0  0  0  0  0  0  0
    2.9742   -7.2788   22.1134 H   0  0  0  0  0  0  0  0  0  0  0  0
   -3.3824   -9.5635   23.9113 H   0  0  0  0  0  0  0  0  0  0  0  0
   -3.6576  -12.1810   25.0559 H   0  0  0  0  0  0  0  0  0  0  0  0
   -4.7442  -12.8581   23.9031 H   0  0  0  0  0  0  0  0  0  0  0  0
   -6.6745  -11.9443   24.0167 H   0  0  0  0  0  0  0  0  0  0  0  0
   -6.7130  -11.1384   25.4636 H   0  0  0  0  0  0  0  0  0  0  0  0
   -8.6185  -14.7043   29.8891 H   0  0  0  0  0  0  0  0  0  0  0  0
  -10.9510  -15.5751   29.6193 H   0  0  0  0  0  0  0  0  0  0  0  0
  -11.7382  -16.3376   27.4857 H   0  0  0  0  0  0  0  0  0  0  0  0
  -10.2036  -16.2423   25.4586 H   0  0  0  0  0  0  0  0  0  0  0  0
   -7.5903  -15.0714   24.8448 H   0  0  0  0  0  0  0  0  0  0  0  0
  1  2  2  0
  2  3  1  0
  3  4  1  0
  4  5  1  0
  5  6  2  0
  5  7  1  0
  7  8  1  0
  8  9  2  0
  9 10  1  0
 10 11  1  0
  2 12  1  0
 12 13  1  0
 13 14  1  0
 14 15  1  0
 15 16  2  0
 16 17  1  0
 17 18  2  0
 18 19  1  0
 19 20  2  0
 20 21  1  0
 21 22  2  0
 22 23  1  0
 11  7  2  0
 23 15  1  0
 22 17  1  0
  3 24  1  0
  3 25  1  0
  4 26  1  0
  8 27  1  0
  9 28  1  0
 11 29  1  0
 12 30  1  0
 13 31  1  0
 13 32  1  0
 14 33  1  0
 14 34  1  0
 18 35  1  0
 19 36  1  0
 20 37  1  0
 21 38  1  0
 23 39  1  0
M  END
>  <Energy>  (248) 
295.26630504062916

>  <compound_id>  (248) 
4884

>  <target_id>  (248) 
1

>  <reference_id>  (248) 
66

>  <inspiration_ids>  (248) 
[94, 66]

>  <energy_score>  (248) 
255.2551558821997

>  <distance_score>  (248) 
12.091456854746417

>  <path>  (248) 
/opt/xchem-fragalysis-2/maxwin/BulkDock/SCRATCH/511016/C4884-P66/C4884-P66.minimised.mol

>  <scratch_subdir>  (248) 
/opt/xchem-fragalysis-2/maxwin/BulkDock/SCRATCH/511016/C4884-P66

>  <fragmenstein_runtime>  (248) 
25.413742542266846

>  <fragmenstein_outcome>  (248) 
too moved

>  <fragmenstein_mode>  (248) 
expansion

>  <fragmenstein_error>  (248) 


$$$$
C4888-P94
     RDKit          3D

 32 34  0  0  0  0  0  0  0  0999 V2000
    2.0481  -11.9923   23.4176 C   0  0  0  0  0  0  0  0  0  0  0  0
    1.6194  -13.1022   24.4008 C   0  0  0  0  0  0  0  0  0  0  0  0
    0.7662  -14.7590   24.2047 N   0  0  0  0  0  0  0  0  0  0  0  0
   -1.1317  -15.5976   24.6492 C   0  0  0  0  0  0  0  0  0  0  0  0
   -1.9645  -14.8204   25.0478 O   0  0  0  0  0  0  0  0  0  0  0  0
   -1.9131  -17.6714   24.8559 C   0  0  0  0  0  0  0  0  0  0  0  0
   -1.3586  -19.0142   23.6178 N   0  0  0  0  0  0  0  0  0  0  0  0
   -1.8100  -20.5055   23.0090 C   0  0  0  0  0  0  0  0  0  0  0  0
   -2.6408  -21.6447   23.0618 C   0  0  0  0  0  0  0  0  0  0  0  0
   -2.0055  -22.7681   22.5859 C   0  0  0  0  0  0  0  0  0  0  0  0
   -0.6998  -22.6226   22.1301 C   0  0  0  0  0  0  0  0  0  0  0  0
    0.2142  -24.1378   21.4533 Br  0  0  0  0  0  0  0  0  0  0  0  0
   -0.0368  -21.3515   22.1133 C   0  0  0  0  0  0  0  0  0  0  0  0
   -0.5652  -20.1185   22.5975 C   0  0  0  0  0  0  0  0  0  0  0  0
   -1.5460  -19.4350   23.8506 N   0  0  0  0  0  0  0  0  0  0  0  0
    3.4685  -13.5455   23.8808 C   0  0  0  0  0  0  0  0  0  0  0  0
    4.6488  -12.4935   23.6103 C   0  0  0  0  0  0  0  0  0  0  0  0
    5.8084  -12.9385   23.0269 C   0  0  0  0  0  0  0  0  0  0  0  0
    5.7032  -14.5856   22.7388 S   0  0  0  0  0  0  0  0  0  0  0  0
    4.1015  -14.6814   23.3845 C   0  0  0  0  0  0  0  0  0  0  0  0
    1.1196  -11.6292   22.9535 H   0  0  0  0  0  0  0  0  0  0  0  0
    2.7446  -11.4271   23.9745 H   0  0  0  0  0  0  0  0  0  0  0  0
    2.6917  -12.0421   22.5093 H   0  0  0  0  0  0  0  0  0  0  0  0
    1.6508  -13.0427   25.4940 H   0  0  0  0  0  0  0  0  0  0  0  0
    1.3842  -15.4841   23.7848 H   0  0  0  0  0  0  0  0  0  0  0  0
   -3.6032  -21.6687   23.5546 H   0  0  0  0  0  0  0  0  0  0  0  0
   -2.5011  -23.7331   22.5936 H   0  0  0  0  0  0  0  0  0  0  0  0
    0.9307  -21.2869   21.6099 H   0  0  0  0  0  0  0  0  0  0  0  0
   -1.8930  -19.9919   24.6750 H   0  0  0  0  0  0  0  0  0  0  0  0
    4.5837  -11.4299   23.8016 H   0  0  0  0  0  0  0  0  0  0  0  0
    6.6847  -12.3641   22.7613 H   0  0  0  0  0  0  0  0  0  0  0  0
    3.7733  -15.6862   23.2989 H   0  0  0  0  0  0  0  0  0  0  0  0
  1  2  1  0
  2  3  1  0
  3  4  1  0
  4  5  2  0
  4  6  1  0
  6  7  2  0
  7  8  1  0
  8  9  2  0
  9 10  1  0
 10 11  2  0
 11 12  1  0
 11 13  1  0
 13 14  2  0
 14 15  1  0
  2 16  1  0
 16 17  1  0
 17 18  2  0
 18 19  1  0
 19 20  1  0
 15  6  1  0
 20 16  2  0
 14  8  1  0
  1 21  1  0
  1 22  1  0
  1 23  1  0
  2 24  1  0
  3 25  1  0
  9 26  1  0
 10 27  1  0
 13 28  1  0
 15 29  1  0
 17 30  1  0
 18 31  1  0
 20 32  1  0
M  END
>  <Energy>  (249) 
1475.3026371395338

>  <compound_id>  (249) 
4888

>  <target_id>  (249) 
1

>  <reference_id>  (249) 
94

>  <inspiration_ids>  (249) 
[94, 66]

>  <energy_score>  (249) 
1438.0690728103461

>  <distance_score>  (249) 
15.067024021213513

>  <path>  (249) 
/opt/xchem-fragalysis-2/maxwin/BulkDock/SCRATCH/511016/C4888-P94/C4888-P94.minimised.mol

>  <scratch_subdir>  (249) 
/opt/xchem-fragalysis-2/maxwin/BulkDock/SCRATCH/511016/C4888-P94

>  <fragmenstein_runtime>  (249) 
12.331720113754272

>  <fragmenstein_outcome>  (249) 
too moved

>  <fragmenstein_mode>  (249) 
expansion

>  <fragmenstein_error>  (249) 


$$$$
C4888-P66
     RDKit          3D

 32 34  0  0  0  0  0  0  0  0999 V2000
   -5.6950   -8.2663   20.8195 C   0  0  0  0  0  0  0  0  0  0  0  0
   -4.9461   -8.6693   22.0985 C   0  0  0  0  0  0  0  0  0  0  0  0
   -5.6385   -9.8354   22.7059 N   0  0  0  0  0  0  0  0  0  0  0  0
   -6.9810   -9.9607   23.2790 C   0  0  0  0  0  0  0  0  0  0  0  0
   -7.8250   -9.1329   23.4716 O   0  0  0  0  0  0  0  0  0  0  0  0
   -7.4503  -11.3693   23.5987 C   0  0  0  0  0  0  0  0  0  0  0  0
   -7.3088  -12.0479   24.7425 N   0  0  0  0  0  0  0  0  0  0  0  0
   -8.1988  -13.1241   24.7057 C   0  0  0  0  0  0  0  0  0  0  0  0
   -8.4951  -14.1475   25.6299 C   0  0  0  0  0  0  0  0  0  0  0  0
   -9.2689  -15.2567   25.2243 C   0  0  0  0  0  0  0  0  0  0  0  0
   -9.8318  -15.2766   23.9494 C   0  0  0  0  0  0  0  0  0  0  0  0
  -10.6816  -16.8139   23.2446 Br  0  0  0  0  0  0  0  0  0  0  0  0
   -9.7306  -14.1712   23.0998 C   0  0  0  0  0  0  0  0  0  0  0  0
   -8.8744  -13.1365   23.4994 C   0  0  0  0  0  0  0  0  0  0  0  0
   -8.4683  -11.9786   22.8774 N   0  0  0  0  0  0  0  0  0  0  0  0
   -3.4060   -8.7039   21.8036 C   0  0  0  0  0  0  0  0  0  0  0  0
   -2.7099   -9.5416   20.8491 C   0  0  0  0  0  0  0  0  0  0  0  0
   -1.3814   -9.2017   20.6584 C   0  0  0  0  0  0  0  0  0  0  0  0
   -0.9308   -7.8436   21.5857 S   0  0  0  0  0  0  0  0  0  0  0  0
   -2.5041   -7.7453   22.2726 C   0  0  0  0  0  0  0  0  0  0  0  0
   -5.2661   -7.3607   20.3765 H   0  0  0  0  0  0  0  0  0  0  0  0
   -6.7525   -8.0693   21.0256 H   0  0  0  0  0  0  0  0  0  0  0  0
   -5.6498   -9.0639   20.0690 H   0  0  0  0  0  0  0  0  0  0  0  0
   -5.1068   -7.8594   22.8233 H   0  0  0  0  0  0  0  0  0  0  0  0
   -5.1624  -10.7374   22.7703 H   0  0  0  0  0  0  0  0  0  0  0  0
   -8.0773  -14.0801   26.6264 H   0  0  0  0  0  0  0  0  0  0  0  0
   -9.3935  -16.0902   25.9092 H   0  0  0  0  0  0  0  0  0  0  0  0
  -10.2056  -14.1577   22.1239 H   0  0  0  0  0  0  0  0  0  0  0  0
   -8.8637  -11.5887   22.0347 H   0  0  0  0  0  0  0  0  0  0  0  0
   -3.1868  -10.3482   20.3038 H   0  0  0  0  0  0  0  0  0  0  0  0
   -0.6622   -9.6753   20.0036 H   0  0  0  0  0  0  0  0  0  0  0  0
   -2.7139   -6.9388   22.9631 H   0  0  0  0  0  0  0  0  0  0  0  0
  1  2  1  0
  2  3  1  0
  3  4  1  0
  4  5  2  0
  4  6  1  0
  6  7  2  0
  7  8  1  0
  8  9  2  0
  9 10  1  0
 10 11  2  0
 11 12  1  0
 11 13  1  0
 13 14  2  0
 14 15  1  0
  2 16  1  0
 16 17  1  0
 17 18  2  0
 18 19  1  0
 19 20  1  0
 15  6  1  0
 20 16  2  0
 14  8  1  0
  1 21  1  0
  1 22  1  0
  1 23  1  0
  2 24  1  0
  3 25  1  0
  9 26  1  0
 10 27  1  0
 13 28  1  0
 15 29  1  0
 17 30  1  0
 18 31  1  0
 20 32  1  0
M  END
>  <Energy>  (250) 
33.962175169594481

>  <compound_id>  (250) 
4888

>  <target_id>  (250) 
1

>  <reference_id>  (250) 
66

>  <inspiration_ids>  (250) 
[94, 66]

>  <energy_score>  (250) 
-3.2713891595821565

>  <distance_score>  (250) 
15.75850834064697

>  <path>  (250) 
/opt/xchem-fragalysis-2/maxwin/BulkDock/SCRATCH/511016/C4888-P66/C4888-P66.minimised.mol

>  <scratch_subdir>  (250) 
/opt/xchem-fragalysis-2/maxwin/BulkDock/SCRATCH/511016/C4888-P66

>  <fragmenstein_runtime>  (250) 
16.912193536758423

>  <fragmenstein_outcome>  (250) 
too moved

>  <fragmenstein_mode>  (250) 
expansion

>  <fragmenstein_error>  (250) 


$$$$
C4890-P94
     RDKit          3D

 35 37  0  0  0  0  0  0  0  0999 V2000
    3.0252  -12.8316   23.7169 C   0  0  0  0  0  0  0  0  0  0  0  0
    2.9483  -14.0348   22.9665 C   0  0  0  0  0  0  0  0  0  0  0  0
    3.6803  -13.2785   21.2329 C   0  0  0  0  0  0  0  0  0  0  0  0
    5.0612  -12.2817   20.5394 C   0  0  0  0  0  0  0  0  0  0  0  0
    5.5481  -10.9335   20.9297 C   0  0  0  0  0  0  0  0  0  0  0  0
    6.5491  -10.4380   20.1212 C   0  0  0  0  0  0  0  0  0  0  0  0
    6.9437  -11.5221   18.8706 S   0  0  0  0  0  0  0  0  0  0  0  0
    5.7620  -12.6571   19.3900 C   0  0  0  0  0  0  0  0  0  0  0  0
    1.1692  -14.2968   23.4116 N   0  0  0  0  0  0  0  0  0  0  0  0
    0.4043  -14.1667   24.7796 C   0  0  0  0  0  0  0  0  0  0  0  0
    0.8867  -13.7536   25.8658 O   0  0  0  0  0  0  0  0  0  0  0  0
   -1.5474  -14.7765   25.0628 C   0  0  0  0  0  0  0  0  0  0  0  0
   -2.3793  -16.1746   24.8765 C   0  0  0  0  0  0  0  0  0  0  0  0
   -2.1841  -17.8073   25.6569 C   0  0  0  0  0  0  0  0  0  0  0  0
   -2.9082  -20.1485   25.7024 Br  0  0  0  0  0  0  0  0  0  0  0  0
   -1.7036  -17.8389   26.8756 C   0  0  0  0  0  0  0  0  0  0  0  0
   -2.3646  -16.6841   27.2209 C   0  0  0  0  0  0  0  0  0  0  0  0
   -3.2811  -16.3483   28.1518 N   0  0  0  0  0  0  0  0  0  0  0  0
   -2.4929  -15.1712   28.6641 C   0  0  0  0  0  0  0  0  0  0  0  0
   -1.5511  -14.8439   27.8700 N   0  0  0  0  0  0  0  0  0  0  0  0
   -2.0282  -15.1266   26.6872 C   0  0  0  0  0  0  0  0  0  0  0  0
    3.2763  -12.0958   22.9803 H   0  0  0  0  0  0  0  0  0  0  0  0
    3.7655  -13.1575   24.4066 H   0  0  0  0  0  0  0  0  0  0  0  0
    2.1481  -12.4436   24.1963 H   0  0  0  0  0  0  0  0  0  0  0  0
    3.4375  -14.9212   23.3846 H   0  0  0  0  0  0  0  0  0  0  0  0
    3.1035  -13.7584   20.4694 H   0  0  0  0  0  0  0  0  0  0  0  0
    4.5915  -13.8642   21.0487 H   0  0  0  0  0  0  0  0  0  0  0  0
    5.1394  -10.3646   21.7589 H   0  0  0  0  0  0  0  0  0  0  0  0
    7.0565   -9.4872   20.2053 H   0  0  0  0  0  0  0  0  0  0  0  0
    5.6348  -13.5667   18.8191 H   0  0  0  0  0  0  0  0  0  0  0  0
    0.4942  -14.5699   22.6838 H   0  0  0  0  0  0  0  0  0  0  0  0
   -3.2125  -15.8733   24.2563 H   0  0  0  0  0  0  0  0  0  0  0  0
   -1.5972  -18.7901   27.2981 H   0  0  0  0  0  0  0  0  0  0  0  0
   -3.8836  -16.8983   28.7529 H   0  0  0  0  0  0  0  0  0  0  0  0
   -2.7196  -14.9278   29.6633 H   0  0  0  0  0  0  0  0  0  0  0  0
  1  2  1  0
  2  3  1  0
  3  4  1  0
  4  5  1  0
  5  6  2  0
  6  7  1  0
  7  8  1  0
  2  9  1  0
  9 10  1  0
 10 11  2  0
 10 12  1  0
 12 13  2  0
 13 14  1  0
 14 15  1  0
 14 16  2  0
 16 17  1  0
 17 18  1  0
 18 19  1  0
 19 20  2  0
 20 21  1  0
  8  4  2  0
 21 12  1  0
 21 17  2  0
  1 22  1  0
  1 23  1  0
  1 24  1  0
  2 25  1  0
  3 26  1  0
  3 27  1  0
  5 28  1  0
  6 29  1  0
  8 30  1  0
  9 31  1  0
 13 32  1  0
 16 33  1  0
 18 34  1  0
 19 35  1  0
M  END
>  <Energy>  (251) 
724.60845646813061

>  <compound_id>  (251) 
4890

>  <target_id>  (251) 
1

>  <reference_id>  (251) 
94

>  <inspiration_ids>  (251) 
[94, 66]

>  <energy_score>  (251) 
662.2680335209942

>  <distance_score>  (251) 
13.321230562552698

>  <path>  (251) 
/opt/xchem-fragalysis-2/maxwin/BulkDock/SCRATCH/511016/C4890-P94/C4890-P94.minimised.mol

>  <scratch_subdir>  (251) 
/opt/xchem-fragalysis-2/maxwin/BulkDock/SCRATCH/511016/C4890-P94

>  <fragmenstein_runtime>  (251) 
21.85153031349182

>  <fragmenstein_outcome>  (251) 
too moved

>  <fragmenstein_mode>  (251) 
expansion

>  <fragmenstein_error>  (251) 


$$$$
C4890-P66
     RDKit          3D

 35 37  0  0  0  0  0  0  0  0999 V2000
    8.2589  -19.1646   22.6735 C   0  0  0  0  0  0  0  0  0  0  0  0
    7.0075  -18.3550   22.3280 C   0  0  0  0  0  0  0  0  0  0  0  0
    7.2583  -16.8153   22.7410 C   0  0  0  0  0  0  0  0  0  0  0  0
    8.0025  -15.8255   21.7856 C   0  0  0  0  0  0  0  0  0  0  0  0
    8.8134  -14.7134   22.2605 C   0  0  0  0  0  0  0  0  0  0  0  0
    9.2833  -13.8843   21.2615 C   0  0  0  0  0  0  0  0  0  0  0  0
    8.7895  -14.4207   19.7227 S   0  0  0  0  0  0  0  0  0  0  0  0
    7.9524  -15.7637   20.4013 C   0  0  0  0  0  0  0  0  0  0  0  0
    5.7311  -19.0901   22.8166 N   0  0  0  0  0  0  0  0  0  0  0  0
    5.4576  -20.5376   23.0123 C   0  0  0  0  0  0  0  0  0  0  0  0
    6.1855  -21.4903   22.9178 O   0  0  0  0  0  0  0  0  0  0  0  0
    3.9907  -20.9722   23.2776 C   0  0  0  0  0  0  0  0  0  0  0  0
    3.0749  -20.7802   22.2114 C   0  0  0  0  0  0  0  0  0  0  0  0
    1.8128  -21.4015   22.1517 C   0  0  0  0  0  0  0  0  0  0  0  0
    0.6846  -21.0756   20.6632 Br  0  0  0  0  0  0  0  0  0  0  0  0
    1.3963  -22.3101   23.1151 C   0  0  0  0  0  0  0  0  0  0  0  0
    2.2906  -22.5384   24.1613 C   0  0  0  0  0  0  0  0  0  0  0  0
    2.1928  -23.3966   25.2357 N   0  0  0  0  0  0  0  0  0  0  0  0
    3.3186  -23.2541   25.9825 C   0  0  0  0  0  0  0  0  0  0  0  0
    4.1402  -22.3745   25.4498 N   0  0  0  0  0  0  0  0  0  0  0  0
    3.5477  -21.9053   24.2837 C   0  0  0  0  0  0  0  0  0  0  0  0
    8.3420  -19.3140   23.7552 H   0  0  0  0  0  0  0  0  0  0  0  0
    9.1650  -18.6581   22.3248 H   0  0  0  0  0  0  0  0  0  0  0  0
    8.2370  -20.1494   22.1974 H   0  0  0  0  0  0  0  0  0  0  0  0
    6.8870  -18.3758   21.2384 H   0  0  0  0  0  0  0  0  0  0  0  0
    6.3003  -16.3727   23.0047 H   0  0  0  0  0  0  0  0  0  0  0  0
    7.8175  -16.8239   23.6878 H   0  0  0  0  0  0  0  0  0  0  0  0
    9.0103  -14.5263   23.3101 H   0  0  0  0  0  0  0  0  0  0  0  0
    9.8896  -12.9953   21.3675 H   0  0  0  0  0  0  0  0  0  0  0  0
    7.4354  -16.4344   19.7290 H   0  0  0  0  0  0  0  0  0  0  0  0
    4.9041  -18.5605   23.0601 H   0  0  0  0  0  0  0  0  0  0  0  0
    3.3851  -20.1599   21.3733 H   0  0  0  0  0  0  0  0  0  0  0  0
    0.4466  -22.8270   23.0392 H   0  0  0  0  0  0  0  0  0  0  0  0
    1.4390  -24.0440   25.4154 H   0  0  0  0  0  0  0  0  0  0  0  0
    3.5001  -23.8150   26.8899 H   0  0  0  0  0  0  0  0  0  0  0  0
  1  2  1  0
  2  3  1  0
  3  4  1  0
  4  5  1  0
  5  6  2  0
  6  7  1  0
  7  8  1  0
  2  9  1  0
  9 10  1  0
 10 11  2  0
 10 12  1  0
 12 13  2  0
 13 14  1  0
 14 15  1  0
 14 16  2  0
 16 17  1  0
 17 18  1  0
 18 19  1  0
 19 20  2  0
 20 21  1  0
  8  4  2  0
 21 12  1  0
 21 17  2  0
  1 22  1  0
  1 23  1  0
  1 24  1  0
  2 25  1  0
  3 26  1  0
  3 27  1  0
  5 28  1  0
  6 29  1  0
  8 30  1  0
  9 31  1  0
 13 32  1  0
 16 33  1  0
 18 34  1  0
 19 35  1  0
M  END
>  <Energy>  (252) 
64.396478889644115

>  <compound_id>  (252) 
4890

>  <target_id>  (252) 
1

>  <reference_id>  (252) 
66

>  <inspiration_ids>  (252) 
[94, 66]

>  <energy_score>  (252) 
2.0560559425114207

>  <distance_score>  (252) 
15.91867462811068

>  <path>  (252) 
/opt/xchem-fragalysis-2/maxwin/BulkDock/SCRATCH/511016/C4890-P66/C4890-P66.minimised.mol

>  <scratch_subdir>  (252) 
/opt/xchem-fragalysis-2/maxwin/BulkDock/SCRATCH/511016/C4890-P66

>  <fragmenstein_runtime>  (252) 
21.221097707748413

>  <fragmenstein_outcome>  (252) 
too moved

>  <fragmenstein_mode>  (252) 
expansion

>  <fragmenstein_error>  (252) 


$$$$
C4891-P94
     RDKit          3D

 41 43  0  0  0  0  0  0  0  0999 V2000
   -2.7984  -12.6871   25.7348 C   0  0  0  0  0  0  0  0  0  0  0  0
   -1.8689  -14.2324   25.7326 C   0  0  0  0  0  0  0  0  0  0  0  0
   -2.3587  -15.2952   25.0261 N   0  0  0  0  0  0  0  0  0  0  0  0
   -2.3543  -16.9748   26.1631 C   0  0  0  0  0  0  0  0  0  0  0  0
   -1.3334  -17.7364   26.1297 O   0  0  0  0  0  0  0  0  0  0  0  0
   -3.5007  -17.5911   27.5123 C   0  0  0  0  0  0  0  0  0  0  0  0
   -4.0047  -17.0194   28.7188 C   0  0  0  0  0  0  0  0  0  0  0  0
   -4.8642  -17.6282   29.6686 C   0  0  0  0  0  0  0  0  0  0  0  0
   -6.3179  -16.7013   30.4369 Br  0  0  0  0  0  0  0  0  0  0  0  0
   -4.7178  -18.9462   29.9631 C   0  0  0  0  0  0  0  0  0  0  0  0
   -3.8926  -19.6353   29.0970 C   0  0  0  0  0  0  0  0  0  0  0  0
   -3.3744  -20.8909   29.2335 N   0  0  0  0  0  0  0  0  0  0  0  0
   -2.7401  -21.2073   28.0875 C   0  0  0  0  0  0  0  0  0  0  0  0
   -2.6591  -20.1669   27.2959 N   0  0  0  0  0  0  0  0  0  0  0  0
   -3.3398  -19.1080   27.9111 C   0  0  0  0  0  0  0  0  0  0  0  0
   -0.8563  -14.3960   23.7975 C   0  0  0  0  0  0  0  0  0  0  0  0
   -0.9258  -14.9041   22.4200 C   0  0  0  0  0  0  0  0  0  0  0  0
   -0.2984  -12.6111   22.6500 C   0  0  0  0  0  0  0  0  0  0  0  0
   -0.7370  -10.7814   21.8822 C   0  0  0  0  0  0  0  0  0  0  0  0
   -1.9591  -10.4084   21.0514 C   0  0  0  0  0  0  0  0  0  0  0  0
   -2.0050   -9.1073   20.5804 C   0  0  0  0  0  0  0  0  0  0  0  0
   -0.6845   -8.1955   21.0953 S   0  0  0  0  0  0  0  0  0  0  0  0
    0.0616   -9.6560   21.5950 C   0  0  0  0  0  0  0  0  0  0  0  0
   -3.3490  -12.5558   26.6663 H   0  0  0  0  0  0  0  0  0  0  0  0
   -2.1463  -11.8501   25.8071 H   0  0  0  0  0  0  0  0  0  0  0  0
   -3.3952  -12.4057   24.8730 H   0  0  0  0  0  0  0  0  0  0  0  0
   -1.0145  -13.6470   25.5437 H   0  0  0  0  0  0  0  0  0  0  0  0
   -1.9724  -14.6774   26.7437 H   0  0  0  0  0  0  0  0  0  0  0  0
   -3.4589  -16.1543   29.0652 H   0  0  0  0  0  0  0  0  0  0  0  0
   -5.1875  -19.3980   30.8288 H   0  0  0  0  0  0  0  0  0  0  0  0
   -3.4673  -21.4734   30.0509 H   0  0  0  0  0  0  0  0  0  0  0  0
   -2.3248  -22.1867   27.9016 H   0  0  0  0  0  0  0  0  0  0  0  0
    0.0850  -14.4239   24.3471 H   0  0  0  0  0  0  0  0  0  0  0  0
   -0.2861  -15.7108   21.9849 H   0  0  0  0  0  0  0  0  0  0  0  0
   -1.8253  -15.0745   23.0073 H   0  0  0  0  0  0  0  0  0  0  0  0
   -1.6333  -14.6934   21.5275 H   0  0  0  0  0  0  0  0  0  0  0  0
   -1.2014  -12.3102   21.5889 H   0  0  0  0  0  0  0  0  0  0  0  0
    0.6175  -11.9151   22.8933 H   0  0  0  0  0  0  0  0  0  0  0  0
   -2.7478  -11.1032   20.7952 H   0  0  0  0  0  0  0  0  0  0  0  0
   -2.7510   -8.6449   19.9546 H   0  0  0  0  0  0  0  0  0  0  0  0
    1.1132   -9.5063   21.5113 H   0  0  0  0  0  0  0  0  0  0  0  0
  1  2  1  0
  2  3  1  0
  3  4  1  0
  4  5  2  0
  4  6  1  0
  6  7  2  0
  7  8  1  0
  8  9  1  0
  8 10  2  0
 10 11  1  0
 11 12  1  0
 12 13  1  0
 13 14  2  0
 14 15  1  0
  3 16  1  0
 16 17  1  0
 16 18  1  0
 18 19  1  0
 19 20  1  0
 20 21  2  0
 21 22  1  0
 22 23  1  0
 15  6  1  0
 23 19  2  0
 15 11  2  0
  1 24  1  0
  1 25  1  0
  1 26  1  0
  2 27  1  0
  2 28  1  0
  7 29  1  0
 10 30  1  0
 12 31  1  0
 13 32  1  0
 16 33  1  0
 17 34  1  0
 17 35  1  0
 17 36  1  0
 18 37  1  0
 18 38  1  0
 20 39  1  0
 21 40  1  0
 23 41  1  0
M  END
>  <Energy>  (253) 
982.05481685597056

>  <compound_id>  (253) 
4891

>  <target_id>  (253) 
1

>  <reference_id>  (253) 
94

>  <inspiration_ids>  (253) 
[94, 66]

>  <energy_score>  (253) 
895.0125141017246

>  <distance_score>  (253) 
13.35658596441068

>  <path>  (253) 
/opt/xchem-fragalysis-2/maxwin/BulkDock/SCRATCH/511016/C4891-P94/C4891-P94.minimised.mol

>  <scratch_subdir>  (253) 
/opt/xchem-fragalysis-2/maxwin/BulkDock/SCRATCH/511016/C4891-P94

>  <fragmenstein_runtime>  (253) 
23.651933431625366

>  <fragmenstein_outcome>  (253) 
too moved

>  <fragmenstein_mode>  (253) 
expansion

>  <fragmenstein_error>  (253) 


$$$$
C4891-P66
     RDKit          3D

 41 43  0  0  0  0  0  0  0  0999 V2000
   -3.2606  -12.2358   26.0114 C   0  0  0  0  0  0  0  0  0  0  0  0
   -2.5518  -10.9970   26.7771 C   0  0  0  0  0  0  0  0  0  0  0  0
   -2.8460  -11.0246   28.7210 N   0  0  0  0  0  0  0  0  0  0  0  0
   -3.6625  -12.6083   29.2910 C   0  0  0  0  0  0  0  0  0  0  0  0
   -2.8759  -13.4455   29.5879 O   0  0  0  0  0  0  0  0  0  0  0  0
   -5.5365  -13.2668   29.7242 C   0  0  0  0  0  0  0  0  0  0  0  0
   -5.8519  -14.7924   30.2064 C   0  0  0  0  0  0  0  0  0  0  0  0
   -6.8436  -15.6159   30.8451 C   0  0  0  0  0  0  0  0  0  0  0  0
   -6.3329  -17.1320   31.8515 Br  0  0  0  0  0  0  0  0  0  0  0  0
   -8.0376  -15.0839   30.8254 C   0  0  0  0  0  0  0  0  0  0  0  0
   -8.0229  -14.7011   29.5145 C   0  0  0  0  0  0  0  0  0  0  0  0
   -8.9911  -14.9015   28.5844 N   0  0  0  0  0  0  0  0  0  0  0  0
   -8.5127  -14.4309   27.4268 C   0  0  0  0  0  0  0  0  0  0  0  0
   -7.3775  -13.7532   27.5686 N   0  0  0  0  0  0  0  0  0  0  0  0
   -6.9017  -13.8924   28.9152 C   0  0  0  0  0  0  0  0  0  0  0  0
   -1.0181  -10.4363   28.6638 C   0  0  0  0  0  0  0  0  0  0  0  0
   -0.6711  -10.1620   30.1931 C   0  0  0  0  0  0  0  0  0  0  0  0
   -0.4400   -8.8146   28.0899 C   0  0  0  0  0  0  0  0  0  0  0  0
    1.0505   -8.3070   28.0270 C   0  0  0  0  0  0  0  0  0  0  0  0
    1.4118   -7.1809   27.1543 C   0  0  0  0  0  0  0  0  0  0  0  0
    2.7422   -6.8230   27.2057 C   0  0  0  0  0  0  0  0  0  0  0  0
    3.5995   -7.7980   28.3132 S   0  0  0  0  0  0  0  0  0  0  0  0
    2.1912   -8.7346   28.6793 C   0  0  0  0  0  0  0  0  0  0  0  0
   -3.9688  -12.3786   26.8117 H   0  0  0  0  0  0  0  0  0  0  0  0
   -2.6539  -13.1321   25.8698 H   0  0  0  0  0  0  0  0  0  0  0  0
   -3.6097  -12.0888   24.9856 H   0  0  0  0  0  0  0  0  0  0  0  0
   -1.8373  -11.4564   26.1407 H   0  0  0  0  0  0  0  0  0  0  0  0
   -2.5026  -10.0190   26.3808 H   0  0  0  0  0  0  0  0  0  0  0  0
   -5.1210  -15.6285   30.0391 H   0  0  0  0  0  0  0  0  0  0  0  0
   -8.8782  -15.3601   31.4247 H   0  0  0  0  0  0  0  0  0  0  0  0
   -9.8704  -15.3755   28.7220 H   0  0  0  0  0  0  0  0  0  0  0  0
   -9.0442  -14.6424   26.5154 H   0  0  0  0  0  0  0  0  0  0  0  0
   -0.1812  -10.9341   28.1993 H   0  0  0  0  0  0  0  0  0  0  0  0
   -1.2287  -10.8044   30.8560 H   0  0  0  0  0  0  0  0  0  0  0  0
   -0.8879   -9.1392   30.5131 H   0  0  0  0  0  0  0  0  0  0  0  0
    0.3933  -10.3347   30.3801 H   0  0  0  0  0  0  0  0  0  0  0  0
   -0.6923   -8.7247   27.0411 H   0  0  0  0  0  0  0  0  0  0  0  0
   -0.9660   -8.0393   28.6610 H   0  0  0  0  0  0  0  0  0  0  0  0
    0.6966   -6.6626   26.5235 H   0  0  0  0  0  0  0  0  0  0  0  0
    3.2406   -6.0290   26.6656 H   0  0  0  0  0  0  0  0  0  0  0  0
    2.2925   -9.5401   29.3935 H   0  0  0  0  0  0  0  0  0  0  0  0
  1  2  1  0
  2  3  1  0
  3  4  1  0
  4  5  2  0
  4  6  1  0
  6  7  2  0
  7  8  1  0
  8  9  1  0
  8 10  2  0
 10 11  1  0
 11 12  1  0
 12 13  1  0
 13 14  2  0
 14 15  1  0
  3 16  1  0
 16 17  1  0
 16 18  1  0
 18 19  1  0
 19 20  1  0
 20 21  2  0
 21 22  1  0
 22 23  1  0
 15  6  1  0
 23 19  2  0
 15 11  2  0
  1 24  1  0
  1 25  1  0
  1 26  1  0
  2 27  1  0
  2 28  1  0
  7 29  1  0
 10 30  1  0
 12 31  1  0
 13 32  1  0
 16 33  1  0
 17 34  1  0
 17 35  1  0
 17 36  1  0
 18 37  1  0
 18 38  1  0
 20 39  1  0
 21 40  1  0
 23 41  1  0
M  END
>  <Energy>  (254) 
678.19373678158422

>  <compound_id>  (254) 
4891

>  <target_id>  (254) 
1

>  <reference_id>  (254) 
66

>  <inspiration_ids>  (254) 
[94, 66]

>  <energy_score>  (254) 
591.1514340273118

>  <distance_score>  (254) 
14.295068582489636

>  <path>  (254) 
/opt/xchem-fragalysis-2/maxwin/BulkDock/SCRATCH/511016/C4891-P66/C4891-P66.minimised.mol

>  <scratch_subdir>  (254) 
/opt/xchem-fragalysis-2/maxwin/BulkDock/SCRATCH/511016/C4891-P66

>  <fragmenstein_runtime>  (254) 
25.410030126571655

>  <fragmenstein_outcome>  (254) 
too moved

>  <fragmenstein_mode>  (254) 
expansion

>  <fragmenstein_error>  (254) 


$$$$
C4892-P94
     RDKit          3D

 35 37  0  0  0  0  0  0  0  0999 V2000
   -5.6041   -6.2656   20.5109 C   0  0  0  0  0  0  0  0  0  0  0  0
   -4.7930   -7.2272   21.1864 O   0  0  0  0  0  0  0  0  0  0  0  0
   -5.3178   -7.6791   22.3628 C   0  0  0  0  0  0  0  0  0  0  0  0
   -6.4217   -7.3534   22.7956 O   0  0  0  0  0  0  0  0  0  0  0  0
   -4.3815   -8.7084   23.0528 C   0  0  0  0  0  0  0  0  0  0  0  0
   -5.2711   -9.3943   24.0555 N   0  0  0  0  0  0  0  0  0  0  0  0
   -4.9621  -10.3158   25.1331 C   0  0  0  0  0  0  0  0  0  0  0  0
   -3.9086  -10.7015   25.5512 O   0  0  0  0  0  0  0  0  0  0  0  0
   -6.2669  -10.9668   25.7509 C   0  0  0  0  0  0  0  0  0  0  0  0
   -7.2322  -11.4976   24.8420 C   0  0  0  0  0  0  0  0  0  0  0  0
   -8.3223  -12.2892   25.2525 C   0  0  0  0  0  0  0  0  0  0  0  0
   -9.6448  -12.7984   23.9959 Br  0  0  0  0  0  0  0  0  0  0  0  0
   -8.4976  -12.6758   26.5754 C   0  0  0  0  0  0  0  0  0  0  0  0
   -7.5556  -12.1848   27.4744 C   0  0  0  0  0  0  0  0  0  0  0  0
   -7.4586  -12.3746   28.8346 N   0  0  0  0  0  0  0  0  0  0  0  0
   -6.3786  -11.6719   29.2703 C   0  0  0  0  0  0  0  0  0  0  0  0
   -5.7590  -11.0715   28.2752 N   0  0  0  0  0  0  0  0  0  0  0  0
   -6.4678  -11.3535   27.1207 C   0  0  0  0  0  0  0  0  0  0  0  0
   -2.9726   -8.0881   23.2236 C   0  0  0  0  0  0  0  0  0  0  0  0
   -1.9489   -8.1949   22.1687 C   0  0  0  0  0  0  0  0  0  0  0  0
   -0.8098   -7.4485   22.3916 C   0  0  0  0  0  0  0  0  0  0  0  0
   -0.9266   -6.5734   23.8504 S   0  0  0  0  0  0  0  0  0  0  0  0
   -2.4936   -7.2230   24.1941 C   0  0  0  0  0  0  0  0  0  0  0  0
   -6.5580   -6.7124   20.2138 H   0  0  0  0  0  0  0  0  0  0  0  0
   -5.0736   -5.9491   19.6087 H   0  0  0  0  0  0  0  0  0  0  0  0
   -5.7663   -5.3871   21.1433 H   0  0  0  0  0  0  0  0  0  0  0  0
   -4.2539   -9.5018   22.3040 H   0  0  0  0  0  0  0  0  0  0  0  0
   -6.2735   -9.2341   24.0329 H   0  0  0  0  0  0  0  0  0  0  0  0
   -7.1016  -11.3086   23.7772 H   0  0  0  0  0  0  0  0  0  0  0  0
   -9.3306  -13.2909   26.8969 H   0  0  0  0  0  0  0  0  0  0  0  0
   -8.0785  -12.9269   29.4100 H   0  0  0  0  0  0  0  0  0  0  0  0
   -6.0760  -11.6433   30.3092 H   0  0  0  0  0  0  0  0  0  0  0  0
   -2.0764   -8.7913   21.2715 H   0  0  0  0  0  0  0  0  0  0  0  0
    0.0736   -7.3811   21.7697 H   0  0  0  0  0  0  0  0  0  0  0  0
   -3.0034   -6.8988   25.0922 H   0  0  0  0  0  0  0  0  0  0  0  0
  1  2  1  0
  2  3  1  0
  3  4  2  0
  3  5  1  0
  5  6  1  0
  6  7  1  0
  7  8  2  0
  7  9  1  0
  9 10  2  0
 10 11  1  0
 11 12  1  0
 11 13  2  0
 13 14  1  0
 14 15  1  0
 15 16  1  0
 16 17  2  0
 17 18  1  0
  5 19  1  0
 19 20  1  0
 20 21  2  0
 21 22  1  0
 22 23  1  0
 18  9  1  0
 23 19  2  0
 18 14  2  0
  1 24  1  0
  1 25  1  0
  1 26  1  0
  5 27  1  0
  6 28  1  0
 10 29  1  0
 13 30  1  0
 15 31  1  0
 16 32  1  0
 20 33  1  0
 21 34  1  0
 23 35  1  0
M  END
>  <Energy>  (255) 
89.424073468540314

>  <compound_id>  (255) 
4892

>  <target_id>  (255) 
1

>  <reference_id>  (255) 
94

>  <inspiration_ids>  (255) 
[94, 66]

>  <energy_score>  (255) 
-20.476957360776453

>  <distance_score>  (255) 
15.758047253051709

>  <path>  (255) 
/opt/xchem-fragalysis-2/maxwin/BulkDock/SCRATCH/511016/C4892-P94/C4892-P94.minimised.mol

>  <scratch_subdir>  (255) 
/opt/xchem-fragalysis-2/maxwin/BulkDock/SCRATCH/511016/C4892-P94

>  <fragmenstein_runtime>  (255) 
28.073137044906616

>  <fragmenstein_outcome>  (255) 
too moved

>  <fragmenstein_mode>  (255) 
expansion

>  <fragmenstein_error>  (255) 


$$$$
C4892-P66
     RDKit          3D

 35 37  0  0  0  0  0  0  0  0999 V2000
   -2.0065   -8.6881   22.3969 C   0  0  0  0  0  0  0  0  0  0  0  0
   -1.3814   -9.9957   22.7122 O   0  0  0  0  0  0  0  0  0  0  0  0
    0.0438   -9.9191   23.4048 C   0  0  0  0  0  0  0  0  0  0  0  0
    0.5939   -8.6336   23.1414 O   0  0  0  0  0  0  0  0  0  0  0  0
    0.9565  -11.5556   24.8303 C   0  0  0  0  0  0  0  0  0  0  0  0
   -0.5175  -13.2399   25.6641 N   0  0  0  0  0  0  0  0  0  0  0  0
   -0.7508  -14.6016   27.3616 C   0  0  0  0  0  0  0  0  0  0  0  0
   -0.1570  -14.7432   28.3673 O   0  0  0  0  0  0  0  0  0  0  0  0
   -2.1774  -15.8977   27.3263 C   0  0  0  0  0  0  0  0  0  0  0  0
   -3.1535  -16.0347   28.4451 C   0  0  0  0  0  0  0  0  0  0  0  0
   -4.1814  -17.0833   28.9864 C   0  0  0  0  0  0  0  0  0  0  0  0
   -5.1664  -16.7928   30.6105 Br  0  0  0  0  0  0  0  0  0  0  0  0
   -4.1698  -18.3623   28.4721 C   0  0  0  0  0  0  0  0  0  0  0  0
   -2.9266  -18.5409   27.7947 C   0  0  0  0  0  0  0  0  0  0  0  0
   -2.1935  -19.7010   27.8429 N   0  0  0  0  0  0  0  0  0  0  0  0
   -0.9075  -19.2695   27.8563 C   0  0  0  0  0  0  0  0  0  0  0  0
   -0.7756  -18.1432   27.1992 N   0  0  0  0  0  0  0  0  0  0  0  0
   -2.0032  -17.4880   27.2863 C   0  0  0  0  0  0  0  0  0  0  0  0
    0.4398  -11.3074   22.6773 C   0  0  0  0  0  0  0  0  0  0  0  0
   -1.0248  -11.2250   21.3386 C   0  0  0  0  0  0  0  0  0  0  0  0
   -1.0898  -10.5768   20.1009 C   0  0  0  0  0  0  0  0  0  0  0  0
    0.1026   -9.4464   19.9941 S   0  0  0  0  0  0  0  0  0  0  0  0
    0.8477  -10.1095   21.4194 C   0  0  0  0  0  0  0  0  0  0  0  0
   -2.7483   -8.8516   21.6104 H   0  0  0  0  0  0  0  0  0  0  0  0
   -2.5376   -8.3393   23.2875 H   0  0  0  0  0  0  0  0  0  0  0  0
   -1.2868   -7.9364   22.0714 H   0  0  0  0  0  0  0  0  0  0  0  0
    1.8305  -12.1717   24.3934 H   0  0  0  0  0  0  0  0  0  0  0  0
   -1.1650  -13.4717   24.9533 H   0  0  0  0  0  0  0  0  0  0  0  0
   -2.9802  -15.2289   29.2124 H   0  0  0  0  0  0  0  0  0  0  0  0
   -4.7279  -19.1828   28.8974 H   0  0  0  0  0  0  0  0  0  0  0  0
   -2.5258  -20.5484   28.2743 H   0  0  0  0  0  0  0  0  0  0  0  0
   -0.0945  -19.8087   28.3275 H   0  0  0  0  0  0  0  0  0  0  0  0
   -1.8698  -11.8715   21.3871 H   0  0  0  0  0  0  0  0  0  0  0  0
   -1.8752  -10.6646   19.3627 H   0  0  0  0  0  0  0  0  0  0  0  0
    1.7059   -9.4248   21.4790 H   0  0  0  0  0  0  0  0  0  0  0  0
  1  2  1  0
  2  3  1  0
  3  4  2  0
  3  5  1  0
  5  6  1  0
  6  7  1  0
  7  8  2  0
  7  9  1  0
  9 10  2  0
 10 11  1  0
 11 12  1  0
 11 13  2  0
 13 14  1  0
 14 15  1  0
 15 16  1  0
 16 17  2  0
 17 18  1  0
  5 19  1  0
 19 20  1  0
 20 21  2  0
 21 22  1  0
 22 23  1  0
 18  9  1  0
 23 19  2  0
 18 14  2  0
  1 24  1  0
  1 25  1  0
  1 26  1  0
  5 27  1  0
  6 28  1  0
 10 29  1  0
 13 30  1  0
 15 31  1  0
 16 32  1  0
 20 33  1  0
 21 34  1  0
 23 35  1  0
M  END
>  <Energy>  (256) 
1712.6508946956362

>  <compound_id>  (256) 
4892

>  <target_id>  (256) 
1

>  <reference_id>  (256) 
66

>  <inspiration_ids>  (256) 
[94, 66]

>  <energy_score>  (256) 
1602.7498638663656

>  <distance_score>  (256) 
13.98582083338538

>  <path>  (256) 
/opt/xchem-fragalysis-2/maxwin/BulkDock/SCRATCH/511016/C4892-P66/C4892-P66.minimised.mol

>  <scratch_subdir>  (256) 
/opt/xchem-fragalysis-2/maxwin/BulkDock/SCRATCH/511016/C4892-P66

>  <fragmenstein_runtime>  (256) 
31.846245765686035

>  <fragmenstein_outcome>  (256) 
too moved

>  <fragmenstein_mode>  (256) 
expansion

>  <fragmenstein_error>  (256) 


$$$$
C4893-P94
     RDKit          3D

 42 44  0  0  0  0  0  0  0  0999 V2000
   -6.7329  -22.1207   26.9449 C   0  0  0  0  0  0  0  0  0  0  0  0
   -7.5141  -20.7809   26.8738 C   0  0  0  0  0  0  0  0  0  0  0  0
   -6.7096  -20.0137   25.1315 C   0  0  0  0  0  0  0  0  0  0  0  0
   -7.5855  -19.6078   23.3478 C   0  0  0  0  0  0  0  0  0  0  0  0
   -6.3664  -18.2054   22.7247 C   0  0  0  0  0  0  0  0  0  0  0  0
   -6.0558  -17.6254   23.6142 O   0  0  0  0  0  0  0  0  0  0  0  0
   -5.3513  -17.6075   21.1958 N   0  0  0  0  0  0  0  0  0  0  0  0
   -3.7284  -16.2851   21.0099 C   0  0  0  0  0  0  0  0  0  0  0  0
   -2.5567  -14.4579   20.6268 C   0  0  0  0  0  0  0  0  0  0  0  0
   -3.6782  -12.6320   20.2779 C   0  0  0  0  0  0  0  0  0  0  0  0
   -2.0335  -12.6083   20.5574 N   0  0  0  0  0  0  0  0  0  0  0  0
   -1.8230  -11.6730   19.3724 C   0  0  0  0  0  0  0  0  0  0  0  0
   -1.8441  -11.8968   18.1831 O   0  0  0  0  0  0  0  0  0  0  0  0
   -1.6768  -10.1801   19.8975 C   0  0  0  0  0  0  0  0  0  0  0  0
   -1.0886   -9.6246   21.1086 C   0  0  0  0  0  0  0  0  0  0  0  0
   -0.8759   -8.2593   21.0531 C   0  0  0  0  0  0  0  0  0  0  0  0
   -1.4603   -7.5814   19.6039 S   0  0  0  0  0  0  0  0  0  0  0  0
   -2.0092   -9.1123   19.0535 C   0  0  0  0  0  0  0  0  0  0  0  0
   -9.4765  -19.9653   23.0855 C   0  0  0  0  0  0  0  0  0  0  0  0
  -10.4414  -20.6031   24.7164 C   0  0  0  0  0  0  0  0  0  0  0  0
  -11.7441  -21.2835   24.9274 N   0  0  0  0  0  0  0  0  0  0  0  0
  -11.6721  -22.0472   26.1336 C   0  0  0  0  0  0  0  0  0  0  0  0
  -10.8403  -21.6061   27.1927 N   0  0  0  0  0  0  0  0  0  0  0  0
   -9.5381  -20.6283   26.5946 C   0  0  0  0  0  0  0  0  0  0  0  0
   -6.6900  -22.6063   25.9681 H   0  0  0  0  0  0  0  0  0  0  0  0
   -5.6964  -21.9721   27.2515 H   0  0  0  0  0  0  0  0  0  0  0  0
   -7.2972  -22.7309   27.6172 H   0  0  0  0  0  0  0  0  0  0  0  0
   -5.6171  -20.0727   25.0950 H   0  0  0  0  0  0  0  0  0  0  0  0
   -5.7087  -18.0898   20.3766 H   0  0  0  0  0  0  0  0  0  0  0  0
   -3.4511  -16.6561   19.9099 H   0  0  0  0  0  0  0  0  0  0  0  0
   -2.9439  -17.0582   20.9348 H   0  0  0  0  0  0  0  0  0  0  0  0
   -1.9828  -14.8566   19.7543 H   0  0  0  0  0  0  0  0  0  0  0  0
   -3.5776  -12.2133   19.2325 H   0  0  0  0  0  0  0  0  0  0  0  0
   -3.6368  -11.6469   20.8286 H   0  0  0  0  0  0  0  0  0  0  0  0
   -4.6737  -12.5284   19.8221 H   0  0  0  0  0  0  0  0  0  0  0  0
   -1.8641  -12.1013   21.4091 H   0  0  0  0  0  0  0  0  0  0  0  0
   -0.6432  -10.2145   21.8881 H   0  0  0  0  0  0  0  0  0  0  0  0
   -0.3680   -7.6428   21.7808 H   0  0  0  0  0  0  0  0  0  0  0  0
   -2.4533   -9.1899   18.0710 H   0  0  0  0  0  0  0  0  0  0  0  0
  -10.0600  -19.7486   22.2038 H   0  0  0  0  0  0  0  0  0  0  0  0
  -12.2480  -22.9584   26.2829 H   0  0  0  0  0  0  0  0  0  0  0  0
  -10.6779  -22.0766   28.0670 H   0  0  0  0  0  0  0  0  0  0  0  0
  1  2  1  0
  2  3  2  0
  3  4  1  0
  4  5  1  0
  5  6  2  0
  5  7  1  0
  7  8  1  0
  8  9  1  0
  9 10  1  0
  9 11  1  0
 11 12  1  0
 12 13  2  0
 12 14  1  0
 14 15  1  0
 15 16  2  0
 16 17  1  0
 17 18  1  0
  4 19  2  0
 19 20  1  0
 20 21  1  0
 21 22  2  0
 22 23  1  0
 23 24  1  0
 24  2  1  0
 18 14  2  0
 24 20  2  0
  1 25  1  0
  1 26  1  0
  1 27  1  0
  3 28  1  0
  7 29  1  0
  8 30  1  0
  8 31  1  0
  9 32  1  0
 10 33  1  0
 10 34  1  0
 10 35  1  0
 11 36  1  0
 15 37  1  0
 16 38  1  0
 18 39  1  0
 19 40  1  0
 22 41  1  0
 23 42  1  0
M  END
>  <Energy>  (257) 
1812.0068298668618

>  <compound_id>  (257) 
4893

>  <target_id>  (257) 
1

>  <reference_id>  (257) 
94

>  <inspiration_ids>  (257) 
[94, 66]

>  <energy_score>  (257) 
1769.9462754408405

>  <distance_score>  (257) 
12.694888947160225

>  <path>  (257) 
/opt/xchem-fragalysis-2/maxwin/BulkDock/SCRATCH/511016/C4893-P94/C4893-P94.minimised.mol

>  <scratch_subdir>  (257) 
/opt/xchem-fragalysis-2/maxwin/BulkDock/SCRATCH/511016/C4893-P94

>  <fragmenstein_runtime>  (257) 
24.850353956222534

>  <fragmenstein_outcome>  (257) 
too moved

>  <fragmenstein_mode>  (257) 
expansion

>  <fragmenstein_error>  (257) 


$$$$
C4893-P66
     RDKit          3D

 42 44  0  0  0  0  0  0  0  0999 V2000
   -4.3864  -20.0649   27.8011 C   0  0  0  0  0  0  0  0  0  0  0  0
   -3.6239  -18.8212   28.1162 C   0  0  0  0  0  0  0  0  0  0  0  0
   -2.4912  -18.0140   27.1313 C   0  0  0  0  0  0  0  0  0  0  0  0
   -2.4350  -16.5663   26.8181 C   0  0  0  0  0  0  0  0  0  0  0  0
   -2.6526  -15.7198   24.9501 C   0  0  0  0  0  0  0  0  0  0  0  0
   -3.7438  -15.7986   24.6199 O   0  0  0  0  0  0  0  0  0  0  0  0
   -1.5400  -15.0771   23.6476 N   0  0  0  0  0  0  0  0  0  0  0  0
   -1.8413  -14.6320   21.6455 C   0  0  0  0  0  0  0  0  0  0  0  0
   -2.1615  -12.8102   20.6557 C   0  0  0  0  0  0  0  0  0  0  0  0
   -2.1650  -11.1832   21.0785 C   0  0  0  0  0  0  0  0  0  0  0  0
   -2.2964  -12.3099   19.0852 N   0  0  0  0  0  0  0  0  0  0  0  0
   -3.2689  -11.4388   18.4448 C   0  0  0  0  0  0  0  0  0  0  0  0
   -4.2640  -10.9324   18.8746 O   0  0  0  0  0  0  0  0  0  0  0  0
   -2.8894  -11.0477   17.0638 C   0  0  0  0  0  0  0  0  0  0  0  0
   -2.7065   -9.6475   16.6957 C   0  0  0  0  0  0  0  0  0  0  0  0
   -2.3182   -9.4607   15.3875 C   0  0  0  0  0  0  0  0  0  0  0  0
   -2.2455  -10.9472   14.5487 S   0  0  0  0  0  0  0  0  0  0  0  0
   -2.6163  -11.8515   15.9772 C   0  0  0  0  0  0  0  0  0  0  0  0
   -3.0289  -16.1729   28.0803 C   0  0  0  0  0  0  0  0  0  0  0  0
   -4.0699  -16.7815   29.1832 C   0  0  0  0  0  0  0  0  0  0  0  0
   -4.6305  -16.3153   30.3761 N   0  0  0  0  0  0  0  0  0  0  0  0
   -5.3833  -17.2943   30.8362 C   0  0  0  0  0  0  0  0  0  0  0  0
   -5.2878  -18.4035   30.0469 N   0  0  0  0  0  0  0  0  0  0  0  0
   -4.3794  -18.1117   29.0640 C   0  0  0  0  0  0  0  0  0  0  0  0
   -4.4201  -20.4265   26.7865 H   0  0  0  0  0  0  0  0  0  0  0  0
   -5.4419  -19.7738   27.8247 H   0  0  0  0  0  0  0  0  0  0  0  0
   -4.2159  -20.8271   28.5609 H   0  0  0  0  0  0  0  0  0  0  0  0
   -2.0733  -18.6769   26.3731 H   0  0  0  0  0  0  0  0  0  0  0  0
   -0.6665  -14.9558   24.0420 H   0  0  0  0  0  0  0  0  0  0  0  0
   -1.9453  -15.3826   20.7950 H   0  0  0  0  0  0  0  0  0  0  0  0
   -0.7540  -14.6940   22.0331 H   0  0  0  0  0  0  0  0  0  0  0  0
   -1.1755  -12.6390   20.6090 H   0  0  0  0  0  0  0  0  0  0  0  0
   -3.1178  -10.7650   21.3921 H   0  0  0  0  0  0  0  0  0  0  0  0
   -1.9635  -10.5276   20.2180 H   0  0  0  0  0  0  0  0  0  0  0  0
   -1.2939  -10.8586   21.6527 H   0  0  0  0  0  0  0  0  0  0  0  0
   -1.5340  -12.4808   18.4430 H   0  0  0  0  0  0  0  0  0  0  0  0
   -2.8475   -8.8320   17.3971 H   0  0  0  0  0  0  0  0  0  0  0  0
   -2.1159   -8.5271   14.8806 H   0  0  0  0  0  0  0  0  0  0  0  0
   -2.6589  -12.9311   15.9205 H   0  0  0  0  0  0  0  0  0  0  0  0
   -2.6194  -15.2141   28.4053 H   0  0  0  0  0  0  0  0  0  0  0  0
   -5.9899  -17.2737   31.7321 H   0  0  0  0  0  0  0  0  0  0  0  0
   -5.7131  -19.3045   30.2474 H   0  0  0  0  0  0  0  0  0  0  0  0
  1  2  1  0
  2  3  2  0
  3  4  1  0
  4  5  1  0
  5  6  2  0
  5  7  1  0
  7  8  1  0
  8  9  1  0
  9 10  1  0
  9 11  1  0
 11 12  1  0
 12 13  2  0
 12 14  1  0
 14 15  1  0
 15 16  2  0
 16 17  1  0
 17 18  1  0
  4 19  2  0
 19 20  1  0
 20 21  1  0
 21 22  2  0
 22 23  1  0
 23 24  1  0
 24  2  1  0
 18 14  2  0
 24 20  2  0
  1 25  1  0
  1 26  1  0
  1 27  1  0
  3 28  1  0
  7 29  1  0
  8 30  1  0
  8 31  1  0
  9 32  1  0
 10 33  1  0
 10 34  1  0
 10 35  1  0
 11 36  1  0
 15 37  1  0
 16 38  1  0
 18 39  1  0
 19 40  1  0
 22 41  1  0
 23 42  1  0
M  END
>  <Energy>  (258) 
645.62088941222828

>  <compound_id>  (258) 
4893

>  <target_id>  (258) 
1

>  <reference_id>  (258) 
66

>  <inspiration_ids>  (258) 
[94, 66]

>  <energy_score>  (258) 
603.5603349861706

>  <distance_score>  (258) 
14.486124033487084

>  <path>  (258) 
/opt/xchem-fragalysis-2/maxwin/BulkDock/SCRATCH/511016/C4893-P66/C4893-P66.minimised.mol

>  <scratch_subdir>  (258) 
/opt/xchem-fragalysis-2/maxwin/BulkDock/SCRATCH/511016/C4893-P66

>  <fragmenstein_runtime>  (258) 
30.171576738357544

>  <fragmenstein_outcome>  (258) 
too moved

>  <fragmenstein_mode>  (258) 
expansion

>  <fragmenstein_error>  (258) 


$$$$
C4894-P94
     RDKit          3D

 34 37  0  0  0  0  0  0  0  0999 V2000
   -1.9994  -14.8743   26.5847 O   0  0  0  0  0  0  0  0  0  0  0  0
   -1.1899  -14.6366   27.4624 C   0  0  0  0  0  0  0  0  0  0  0  0
    0.5551  -13.5664   26.6021 C   0  0  0  0  0  0  0  0  0  0  0  0
    1.7196  -13.0155   25.0272 N   0  0  0  0  0  0  0  0  0  0  0  0
    1.4791  -13.7713   23.8661 N   0  0  0  0  0  0  0  0  0  0  0  0
    2.7466  -14.0009   23.4686 N   0  0  0  0  0  0  0  0  0  0  0  0
    3.2642  -12.8511   23.2147 N   0  0  0  0  0  0  0  0  0  0  0  0
    2.4488  -11.9269   23.6611 C   0  0  0  0  0  0  0  0  0  0  0  0
    3.6087  -10.2940   22.7472 C   0  0  0  0  0  0  0  0  0  0  0  0
    3.2137   -8.7658   22.2013 C   0  0  0  0  0  0  0  0  0  0  0  0
    4.2729   -7.9039   21.9601 C   0  0  0  0  0  0  0  0  0  0  0  0
    5.7845   -8.6030   22.3076 S   0  0  0  0  0  0  0  0  0  0  0  0
    5.0869  -10.1442   22.7437 C   0  0  0  0  0  0  0  0  0  0  0  0
   -1.6225  -15.0444   29.2522 N   0  0  0  0  0  0  0  0  0  0  0  0
   -3.2028  -15.6906   30.0613 C   0  0  0  0  0  0  0  0  0  0  0  0
   -4.8456  -16.0061   30.0291 N   0  0  0  0  0  0  0  0  0  0  0  0
   -5.6199  -16.4829   31.6180 C   0  0  0  0  0  0  0  0  0  0  0  0
   -6.8952  -16.5799   32.1176 C   0  0  0  0  0  0  0  0  0  0  0  0
   -7.0271  -17.0504   33.4417 C   0  0  0  0  0  0  0  0  0  0  0  0
   -5.9334  -17.3939   34.2675 C   0  0  0  0  0  0  0  0  0  0  0  0
   -4.5890  -17.2136   33.9011 C   0  0  0  0  0  0  0  0  0  0  0  0
   -4.3840  -16.7369   32.6121 C   0  0  0  0  0  0  0  0  0  0  0  0
   -2.9511  -16.3795   31.7002 N   0  0  0  0  0  0  0  0  0  0  0  0
   -0.1753  -13.3108   25.8865 H   0  0  0  0  0  0  0  0  0  0  0  0
    1.3730  -14.2543   26.5897 H   0  0  0  0  0  0  0  0  0  0  0  0
    2.1872   -8.4663   22.0040 H   0  0  0  0  0  0  0  0  0  0  0  0
    4.2073   -6.8879   21.5964 H   0  0  0  0  0  0  0  0  0  0  0  0
    5.8378  -10.8170   23.1157 H   0  0  0  0  0  0  0  0  0  0  0  0
   -0.8142  -14.8630   29.8281 H   0  0  0  0  0  0  0  0  0  0  0  0
   -7.7035  -16.1999   31.5226 H   0  0  0  0  0  0  0  0  0  0  0  0
   -8.0257  -17.1432   33.8692 H   0  0  0  0  0  0  0  0  0  0  0  0
   -6.1492  -17.7790   35.2646 H   0  0  0  0  0  0  0  0  0  0  0  0
   -3.7754  -17.4493   34.5738 H   0  0  0  0  0  0  0  0  0  0  0  0
   -2.1986  -15.9392   32.1789 H   0  0  0  0  0  0  0  0  0  0  0  0
  1  2  2  0
  2  3  1  0
  3  4  1  0
  4  5  1  0
  5  6  2  0
  6  7  1  0
  7  8  2  0
  8  9  1  0
  9 10  1  0
 10 11  2  0
 11 12  1  0
 12 13  1  0
  2 14  1  0
 14 15  1  0
 15 16  2  0
 16 17  1  0
 17 18  2  0
 18 19  1  0
 19 20  2  0
 20 21  1  0
 21 22  2  0
 22 23  1  0
  8  4  1  0
 13  9  2  0
 23 15  1  0
 22 17  1  0
  3 24  1  0
  3 25  1  0
 10 26  1  0
 11 27  1  0
 13 28  1  0
 14 29  1  0
 18 30  1  0
 19 31  1  0
 20 32  1  0
 21 33  1  0
 23 34  1  0
M  END
>  <Energy>  (259) 
1030.0935811547308

>  <compound_id>  (259) 
4894

>  <target_id>  (259) 
1

>  <reference_id>  (259) 
94

>  <inspiration_ids>  (259) 
[94, 66]

>  <energy_score>  (259) 
998.2323289030837

>  <distance_score>  (259) 
12.187589170778718

>  <path>  (259) 
/opt/xchem-fragalysis-2/maxwin/BulkDock/SCRATCH/511016/C4894-P94/C4894-P94.minimised.mol

>  <scratch_subdir>  (259) 
/opt/xchem-fragalysis-2/maxwin/BulkDock/SCRATCH/511016/C4894-P94

>  <fragmenstein_runtime>  (259) 
16.91514301300049

>  <fragmenstein_outcome>  (259) 
too moved

>  <fragmenstein_mode>  (259) 
expansion

>  <fragmenstein_error>  (259) 


$$$$
C4894-P66
     RDKit          3D

 34 37  0  0  0  0  0  0  0  0999 V2000
    2.7366   -9.6496   32.8713 O   0  0  0  0  0  0  0  0  0  0  0  0
    3.6078  -10.3469   33.3288 C   0  0  0  0  0  0  0  0  0  0  0  0
    5.0503   -9.7767   33.0086 C   0  0  0  0  0  0  0  0  0  0  0  0
    5.9278  -10.4869   32.0852 N   0  0  0  0  0  0  0  0  0  0  0  0
    6.4380  -11.6358   32.6041 N   0  0  0  0  0  0  0  0  0  0  0  0
    7.2197  -12.1390   31.6704 N   0  0  0  0  0  0  0  0  0  0  0  0
    7.2835  -11.3145   30.5889 N   0  0  0  0  0  0  0  0  0  0  0  0
    6.5690  -10.2259   30.8527 C   0  0  0  0  0  0  0  0  0  0  0  0
    6.6890   -9.0137   29.7676 C   0  0  0  0  0  0  0  0  0  0  0  0
    7.3700   -9.1919   28.4960 C   0  0  0  0  0  0  0  0  0  0  0  0
    7.3921   -8.0583   27.7103 C   0  0  0  0  0  0  0  0  0  0  0  0
    6.6248   -6.7520   28.4961 S   0  0  0  0  0  0  0  0  0  0  0  0
    6.2555   -7.7137   29.8865 C   0  0  0  0  0  0  0  0  0  0  0  0
    3.5282  -11.5516   34.1960 N   0  0  0  0  0  0  0  0  0  0  0  0
    2.4061  -12.2398   34.7295 C   0  0  0  0  0  0  0  0  0  0  0  0
    1.1286  -11.9499   34.5807 N   0  0  0  0  0  0  0  0  0  0  0  0
    0.3484  -12.8907   35.2302 C   0  0  0  0  0  0  0  0  0  0  0  0
   -1.0567  -13.0562   35.2883 C   0  0  0  0  0  0  0  0  0  0  0  0
   -1.6040  -14.1804   35.9287 C   0  0  0  0  0  0  0  0  0  0  0  0
   -0.7616  -15.1052   36.5449 C   0  0  0  0  0  0  0  0  0  0  0  0
    0.6405  -14.9372   36.5307 C   0  0  0  0  0  0  0  0  0  0  0  0
    1.1676  -13.8215   35.8446 C   0  0  0  0  0  0  0  0  0  0  0  0
    2.4561  -13.3863   35.5310 N   0  0  0  0  0  0  0  0  0  0  0  0
    5.5894   -9.6785   33.9589 H   0  0  0  0  0  0  0  0  0  0  0  0
    4.9364   -8.7647   32.6037 H   0  0  0  0  0  0  0  0  0  0  0  0
    7.8198  -10.1299   28.1880 H   0  0  0  0  0  0  0  0  0  0  0  0
    7.8337   -7.9359   26.7300 H   0  0  0  0  0  0  0  0  0  0  0  0
    5.7623   -7.2442   30.7250 H   0  0  0  0  0  0  0  0  0  0  0  0
    4.4631  -11.8352   34.4568 H   0  0  0  0  0  0  0  0  0  0  0  0
   -1.6964  -12.3298   34.8014 H   0  0  0  0  0  0  0  0  0  0  0  0
   -2.6818  -14.3222   35.9385 H   0  0  0  0  0  0  0  0  0  0  0  0
   -1.1889  -15.9767   37.0365 H   0  0  0  0  0  0  0  0  0  0  0  0
    1.2884  -15.6771   36.9896 H   0  0  0  0  0  0  0  0  0  0  0  0
    3.2992  -13.8560   35.8162 H   0  0  0  0  0  0  0  0  0  0  0  0
  1  2  2  0
  2  3  1  0
  3  4  1  0
  4  5  1  0
  5  6  2  0
  6  7  1  0
  7  8  2  0
  8  9  1  0
  9 10  1  0
 10 11  2  0
 11 12  1  0
 12 13  1  0
  2 14  1  0
 14 15  1  0
 15 16  2  0
 16 17  1  0
 17 18  2  0
 18 19  1  0
 19 20  2  0
 20 21  1  0
 21 22  2  0
 22 23  1  0
  8  4  1  0
 13  9  2  0
 23 15  1  0
 22 17  1  0
  3 24  1  0
  3 25  1  0
 10 26  1  0
 11 27  1  0
 13 28  1  0
 14 29  1  0
 18 30  1  0
 19 31  1  0
 20 32  1  0
 21 33  1  0
 23 34  1  0
M  END
>  <Energy>  (260) 
21.112386203699266

>  <compound_id>  (260) 
4894

>  <target_id>  (260) 
1

>  <reference_id>  (260) 
66

>  <inspiration_ids>  (260) 
[94, 66]

>  <energy_score>  (260) 
-10.74886604795654

>  <distance_score>  (260) 
16.87517664266509

>  <path>  (260) 
/opt/xchem-fragalysis-2/maxwin/BulkDock/SCRATCH/511016/C4894-P66/C4894-P66.minimised.mol

>  <scratch_subdir>  (260) 
/opt/xchem-fragalysis-2/maxwin/BulkDock/SCRATCH/511016/C4894-P66

>  <fragmenstein_runtime>  (260) 
18.377758264541626

>  <fragmenstein_outcome>  (260) 
too moved

>  <fragmenstein_mode>  (260) 
expansion

>  <fragmenstein_error>  (260) 


$$$$
C4895-P94
     RDKit          3D

 40 43  0  0  0  0  0  0  0  0999 V2000
   -4.6006  -16.4643   29.0984 O   0  0  0  0  0  0  0  0  0  0  0  0
   -3.5010  -16.0548   29.3461 C   0  0  0  0  0  0  0  0  0  0  0  0
   -2.2402  -15.4836   27.8072 C   0  0  0  0  0  0  0  0  0  0  0  0
   -2.1367  -14.8371   25.9877 N   0  0  0  0  0  0  0  0  0  0  0  0
   -2.7345  -15.9039   25.1674 N   0  0  0  0  0  0  0  0  0  0  0  0
   -2.8298  -15.4463   23.9950 N   0  0  0  0  0  0  0  0  0  0  0  0
   -1.5786  -15.1693   23.6416 N   0  0  0  0  0  0  0  0  0  0  0  0
   -0.9915  -14.5903   24.6215 C   0  0  0  0  0  0  0  0  0  0  0  0
    0.8990  -14.0908   24.1690 C   0  0  0  0  0  0  0  0  0  0  0  0
    1.5478  -13.3568   25.3389 C   0  0  0  0  0  0  0  0  0  0  0  0
    2.0457  -12.4674   24.4421 C   0  0  0  0  0  0  0  0  0  0  0  0
    3.0495  -12.7094   23.2488 S   0  0  0  0  0  0  0  0  0  0  0  0
    2.4780  -14.2624   23.4059 C   0  0  0  0  0  0  0  0  0  0  0  0
   -2.8143  -16.0026   30.8372 N   0  0  0  0  0  0  0  0  0  0  0  0
   -3.3851  -16.6013   32.4016 C   0  0  0  0  0  0  0  0  0  0  0  0
   -5.2791  -16.8495   32.6038 C   0  0  0  0  0  0  0  0  0  0  0  0
   -6.4747  -16.9423   33.7137 C   0  0  0  0  0  0  0  0  0  0  0  0
   -6.7205  -15.9612   34.5805 N   0  0  0  0  0  0  0  0  0  0  0  0
   -7.9696  -16.1133   35.0534 C   0  0  0  0  0  0  0  0  0  0  0  0
   -8.6915  -15.2930   35.9270 C   0  0  0  0  0  0  0  0  0  0  0  0
  -10.0376  -15.5686   36.1734 C   0  0  0  0  0  0  0  0  0  0  0  0
  -10.6525  -16.6338   35.5470 C   0  0  0  0  0  0  0  0  0  0  0  0
   -9.9178  -17.4499   34.6915 C   0  0  0  0  0  0  0  0  0  0  0  0
   -8.5529  -17.2145   34.4774 C   0  0  0  0  0  0  0  0  0  0  0  0
   -7.5225  -17.8390   33.7716 N   0  0  0  0  0  0  0  0  0  0  0  0
   -2.1381  -16.5144   27.4053 H   0  0  0  0  0  0  0  0  0  0  0  0
   -1.2843  -15.1342   28.1422 H   0  0  0  0  0  0  0  0  0  0  0  0
    1.0596  -13.1858   26.2683 H   0  0  0  0  0  0  0  0  0  0  0  0
    1.7887  -11.5644   24.7653 H   0  0  0  0  0  0  0  0  0  0  0  0
    3.1318  -15.1035   23.2607 H   0  0  0  0  0  0  0  0  0  0  0  0
   -1.8760  -15.6175   30.7529 H   0  0  0  0  0  0  0  0  0  0  0  0
   -2.8060  -17.5015   32.4379 H   0  0  0  0  0  0  0  0  0  0  0  0
   -2.9991  -15.8225   33.0483 H   0  0  0  0  0  0  0  0  0  0  0  0
   -5.8156  -16.7063   31.6747 H   0  0  0  0  0  0  0  0  0  0  0  0
   -5.2337  -15.8884   33.0142 H   0  0  0  0  0  0  0  0  0  0  0  0
   -8.2100  -14.4303   36.3734 H   0  0  0  0  0  0  0  0  0  0  0  0
  -10.6061  -14.9237   36.8374 H   0  0  0  0  0  0  0  0  0  0  0  0
  -11.7071  -16.8369   35.7091 H   0  0  0  0  0  0  0  0  0  0  0  0
  -10.4348  -18.2849   34.2310 H   0  0  0  0  0  0  0  0  0  0  0  0
   -7.5967  -18.6817   33.2083 H   0  0  0  0  0  0  0  0  0  0  0  0
  1  2  2  0
  2  3  1  0
  3  4  1  0
  4  5  1  0
  5  6  2  0
  6  7  1  0
  7  8  2  0
  8  9  1  0
  9 10  1  0
 10 11  2  0
 11 12  1  0
 12 13  1  0
  2 14  1  0
 14 15  1  0
 15 16  1  0
 16 17  1  0
 17 18  2  0
 18 19  1  0
 19 20  2  0
 20 21  1  0
 21 22  2  0
 22 23  1  0
 23 24  2  0
 24 25  1  0
  8  4  1  0
 13  9  2  0
 25 17  1  0
 24 19  1  0
  3 26  1  0
  3 27  1  0
 10 28  1  0
 11 29  1  0
 13 30  1  0
 14 31  1  0
 15 32  1  0
 15 33  1  0
 16 34  1  0
 16 35  1  0
 20 36  1  0
 21 37  1  0
 22 38  1  0
 23 39  1  0
 25 40  1  0
M  END
>  <Energy>  (261) 
641.22238569172498

>  <compound_id>  (261) 
4895

>  <target_id>  (261) 
1

>  <reference_id>  (261) 
94

>  <inspiration_ids>  (261) 
[94, 66]

>  <energy_score>  (261) 
578.5147263594905

>  <distance_score>  (261) 
13.94246756847974

>  <path>  (261) 
/opt/xchem-fragalysis-2/maxwin/BulkDock/SCRATCH/511016/C4895-P94/C4895-P94.minimised.mol

>  <scratch_subdir>  (261) 
/opt/xchem-fragalysis-2/maxwin/BulkDock/SCRATCH/511016/C4895-P94

>  <fragmenstein_runtime>  (261) 
26.309699296951294

>  <fragmenstein_outcome>  (261) 
too moved

>  <fragmenstein_mode>  (261) 
expansion

>  <fragmenstein_error>  (261) 


$$$$
C4895-P66
     RDKit          3D

 40 43  0  0  0  0  0  0  0  0999 V2000
   -0.4361  -18.1230   21.7611 O   0  0  0  0  0  0  0  0  0  0  0  0
   -0.7403  -19.1603   22.3348 C   0  0  0  0  0  0  0  0  0  0  0  0
   -0.3770  -20.5219   21.7265 C   0  0  0  0  0  0  0  0  0  0  0  0
    0.1204  -20.5757   20.2844 N   0  0  0  0  0  0  0  0  0  0  0  0
   -0.3309  -21.7605   19.7250 N   0  0  0  0  0  0  0  0  0  0  0  0
    0.6847  -22.5984   19.9426 N   0  0  0  0  0  0  0  0  0  0  0  0
    1.8478  -21.8903   20.1877 N   0  0  0  0  0  0  0  0  0  0  0  0
    1.5131  -20.6435   19.8724 C   0  0  0  0  0  0  0  0  0  0  0  0
    2.3605  -19.9454   18.6343 C   0  0  0  0  0  0  0  0  0  0  0  0
    1.8711  -19.0786   17.6061 C   0  0  0  0  0  0  0  0  0  0  0  0
    2.8714  -18.6129   16.7655 C   0  0  0  0  0  0  0  0  0  0  0  0
    4.4058  -19.2563   17.1683 S   0  0  0  0  0  0  0  0  0  0  0  0
    3.7179  -20.1831   18.4522 C   0  0  0  0  0  0  0  0  0  0  0  0
   -1.4797  -19.4253   23.9079 N   0  0  0  0  0  0  0  0  0  0  0  0
   -2.0072  -18.0947   25.5052 C   0  0  0  0  0  0  0  0  0  0  0  0
   -2.8652  -17.1926   27.2475 C   0  0  0  0  0  0  0  0  0  0  0  0
   -4.1524  -16.3535   28.6846 C   0  0  0  0  0  0  0  0  0  0  0  0
   -5.3047  -16.9474   29.6195 N   0  0  0  0  0  0  0  0  0  0  0  0
   -5.8830  -16.2604   31.1060 C   0  0  0  0  0  0  0  0  0  0  0  0
   -6.4485  -16.7392   32.4812 C   0  0  0  0  0  0  0  0  0  0  0  0
   -7.4912  -16.0086   33.2621 C   0  0  0  0  0  0  0  0  0  0  0  0
   -8.0448  -14.8090   32.6580 C   0  0  0  0  0  0  0  0  0  0  0  0
   -7.2322  -14.2227   31.3036 C   0  0  0  0  0  0  0  0  0  0  0  0
   -6.0814  -14.9855   30.5115 C   0  0  0  0  0  0  0  0  0  0  0  0
   -5.8660  -15.6942   29.1082 N   0  0  0  0  0  0  0  0  0  0  0  0
    0.4214  -20.9682   22.3294 H   0  0  0  0  0  0  0  0  0  0  0  0
   -1.2685  -21.1584   21.7712 H   0  0  0  0  0  0  0  0  0  0  0  0
    0.8276  -18.8154   17.4993 H   0  0  0  0  0  0  0  0  0  0  0  0
    2.7716  -17.9406   15.9246 H   0  0  0  0  0  0  0  0  0  0  0  0
    4.3555  -20.8228   19.0475 H   0  0  0  0  0  0  0  0  0  0  0  0
   -1.6022  -20.4170   24.0742 H   0  0  0  0  0  0  0  0  0  0  0  0
   -2.4716  -17.2222   25.0892 H   0  0  0  0  0  0  0  0  0  0  0  0
   -2.3268  -19.0030   26.0178 H   0  0  0  0  0  0  0  0  0  0  0  0
   -2.4094  -16.1972   27.1305 H   0  0  0  0  0  0  0  0  0  0  0  0
   -1.9370  -17.3744   27.7473 H   0  0  0  0  0  0  0  0  0  0  0  0
   -6.3568  -17.7956   32.7062 H   0  0  0  0  0  0  0  0  0  0  0  0
   -7.9137  -16.4428   34.1617 H   0  0  0  0  0  0  0  0  0  0  0  0
   -8.7524  -14.1837   33.1945 H   0  0  0  0  0  0  0  0  0  0  0  0
   -6.9851  -13.1676   31.3456 H   0  0  0  0  0  0  0  0  0  0  0  0
   -6.3629  -15.1067   28.4874 H   0  0  0  0  0  0  0  0  0  0  0  0
  1  2  2  0
  2  3  1  0
  3  4  1  0
  4  5  1  0
  5  6  2  0
  6  7  1  0
  7  8  2  0
  8  9  1  0
  9 10  1  0
 10 11  2  0
 11 12  1  0
 12 13  1  0
  2 14  1  0
 14 15  1  0
 15 16  1  0
 16 17  1  0
 17 18  2  0
 18 19  1  0
 19 20  2  0
 20 21  1  0
 21 22  2  0
 22 23  1  0
 23 24  2  0
 24 25  1  0
  8  4  1  0
 13  9  2  0
 25 17  1  0
 24 19  1  0
  3 26  1  0
  3 27  1  0
 10 28  1  0
 11 29  1  0
 13 30  1  0
 14 31  1  0
 15 32  1  0
 15 33  1  0
 16 34  1  0
 16 35  1  0
 20 36  1  0
 21 37  1  0
 22 38  1  0
 23 39  1  0
 25 40  1  0
M  END
>  <Energy>  (262) 
993.91287635427113

>  <compound_id>  (262) 
4895

>  <target_id>  (262) 
1

>  <reference_id>  (262) 
66

>  <inspiration_ids>  (262) 
[94, 66]

>  <energy_score>  (262) 
931.2052170220171

>  <distance_score>  (262) 
15.650500720869557

>  <path>  (262) 
/opt/xchem-fragalysis-2/maxwin/BulkDock/SCRATCH/511016/C4895-P66/C4895-P66.minimised.mol

>  <scratch_subdir>  (262) 
/opt/xchem-fragalysis-2/maxwin/BulkDock/SCRATCH/511016/C4895-P66

>  <fragmenstein_runtime>  (262) 
34.71480178833008

>  <fragmenstein_outcome>  (262) 
too moved

>  <fragmenstein_mode>  (262) 
expansion

>  <fragmenstein_error>  (262) 


$$$$
C4896-P94
     RDKit          3D

 40 42  0  0  0  0  0  0  0  0999 V2000
    2.8079  -17.8605   26.5357 O   0  0  0  0  0  0  0  0  0  0  0  0
    2.3289  -17.1250   27.3552 C   0  0  0  0  0  0  0  0  0  0  0  0
    2.7425  -15.8734   27.7997 N   0  0  0  0  0  0  0  0  0  0  0  0
    3.9086  -14.9352   27.3057 C   0  0  0  0  0  0  0  0  0  0  0  0
    4.6233  -14.1361   25.8140 C   0  0  0  0  0  0  0  0  0  0  0  0
    5.9620  -12.8578   26.1348 C   0  0  0  0  0  0  0  0  0  0  0  0
    6.1321  -12.1125   27.3904 C   0  0  0  0  0  0  0  0  0  0  0  0
    7.1133  -11.1383   27.4075 C   0  0  0  0  0  0  0  0  0  0  0  0
    7.9221  -11.0278   25.9293 S   0  0  0  0  0  0  0  0  0  0  0  0
    6.9056  -12.2491   25.2787 C   0  0  0  0  0  0  0  0  0  0  0  0
    0.7165  -17.7234   28.0025 C   0  0  0  0  0  0  0  0  0  0  0  0
   -0.6651  -17.7898   27.3423 O   0  0  0  0  0  0  0  0  0  0  0  0
    0.4566  -18.7638   29.6420 C   0  0  0  0  0  0  0  0  0  0  0  0
    0.9081  -17.8158   30.5455 O   0  0  0  0  0  0  0  0  0  0  0  0
    0.1116  -20.3430   30.2918 C   0  0  0  0  0  0  0  0  0  0  0  0
    0.1035  -20.7217   31.5624 N   0  0  0  0  0  0  0  0  0  0  0  0
   -0.4464  -21.9757   31.6692 C   0  0  0  0  0  0  0  0  0  0  0  0
   -0.6715  -22.7835   32.7917 C   0  0  0  0  0  0  0  0  0  0  0  0
   -1.0805  -24.1058   32.5908 C   0  0  0  0  0  0  0  0  0  0  0  0
   -1.2595  -24.6000   31.3006 C   0  0  0  0  0  0  0  0  0  0  0  0
   -1.1659  -23.7692   30.1839 C   0  0  0  0  0  0  0  0  0  0  0  0
   -0.7585  -22.4547   30.4188 C   0  0  0  0  0  0  0  0  0  0  0  0
   -0.5936  -21.3567   29.6119 N   0  0  0  0  0  0  0  0  0  0  0  0
    2.0745  -15.5254   28.4153 H   0  0  0  0  0  0  0  0  0  0  0  0
    4.5444  -14.7132   28.1028 H   0  0  0  0  0  0  0  0  0  0  0  0
    4.2236  -15.8409   26.8896 H   0  0  0  0  0  0  0  0  0  0  0  0
    5.1114  -14.9311   25.2434 H   0  0  0  0  0  0  0  0  0  0  0  0
    3.8546  -13.8903   25.0806 H   0  0  0  0  0  0  0  0  0  0  0  0
    5.5147  -12.2714   28.2653 H   0  0  0  0  0  0  0  0  0  0  0  0
    7.3828  -10.4966   28.2356 H   0  0  0  0  0  0  0  0  0  0  0  0
    7.1207  -12.3777   24.2404 H   0  0  0  0  0  0  0  0  0  0  0  0
    0.9339  -18.2593   27.1127 H   0  0  0  0  0  0  0  0  0  0  0  0
   -0.6891  -18.3715   26.5548 H   0  0  0  0  0  0  0  0  0  0  0  0
   -0.4395  -19.0288   29.2016 H   0  0  0  0  0  0  0  0  0  0  0  0
    0.2001  -17.4433   31.0687 H   0  0  0  0  0  0  0  0  0  0  0  0
   -0.4605  -22.4054   33.7857 H   0  0  0  0  0  0  0  0  0  0  0  0
   -1.2011  -24.7647   33.4472 H   0  0  0  0  0  0  0  0  0  0  0  0
   -1.4761  -25.6560   31.1645 H   0  0  0  0  0  0  0  0  0  0  0  0
   -1.3617  -24.1462   29.1876 H   0  0  0  0  0  0  0  0  0  0  0  0
   -0.9372  -21.2960   28.6676 H   0  0  0  0  0  0  0  0  0  0  0  0
  1  2  2  0
  2  3  1  0
  3  4  1  0
  4  5  1  0
  5  6  1  0
  6  7  1  0
  7  8  2  0
  8  9  1  0
  9 10  1  0
  2 11  1  0
 11 12  1  0
 11 13  1  0
 13 14  1  0
 13 15  1  0
 15 16  2  0
 16 17  1  0
 17 18  2  0
 18 19  1  0
 19 20  2  0
 20 21  1  0
 21 22  2  0
 22 23  1  0
 10  6  2  0
 23 15  1  0
 22 17  1  0
  3 24  1  0
  4 25  1  0
  4 26  1  0
  5 27  1  0
  5 28  1  0
  7 29  1  0
  8 30  1  0
 10 31  1  0
 11 32  1  0
 12 33  1  0
 13 34  1  0
 14 35  1  0
 18 36  1  0
 19 37  1  0
 20 38  1  0
 21 39  1  0
 23 40  1  0
M  END
>  <Energy>  (263) 
407.30024308426022

>  <compound_id>  (263) 
4896

>  <target_id>  (263) 
1

>  <reference_id>  (263) 
94

>  <inspiration_ids>  (263) 
[94, 66]

>  <energy_score>  (263) 
289.76580419775496

>  <distance_score>  (263) 
13.566123432852152

>  <path>  (263) 
/opt/xchem-fragalysis-2/maxwin/BulkDock/SCRATCH/511016/C4896-P94/C4896-P94.minimised.mol

>  <scratch_subdir>  (263) 
/opt/xchem-fragalysis-2/maxwin/BulkDock/SCRATCH/511016/C4896-P94

>  <fragmenstein_runtime>  (263) 
47.63998985290527

>  <fragmenstein_outcome>  (263) 
too moved

>  <fragmenstein_mode>  (263) 
expansion

>  <fragmenstein_error>  (263) 


$$$$
C4896-P66
     RDKit          3D

 40 42  0  0  0  0  0  0  0  0999 V2000
   -7.5290  -14.1819   30.6653 O   0  0  0  0  0  0  0  0  0  0  0  0
   -6.4147  -14.4750   30.3542 C   0  0  0  0  0  0  0  0  0  0  0  0
   -5.1656  -13.5719   30.0705 N   0  0  0  0  0  0  0  0  0  0  0  0
   -4.9725  -12.1313   30.1948 C   0  0  0  0  0  0  0  0  0  0  0  0
   -3.1992  -11.7456   29.8435 C   0  0  0  0  0  0  0  0  0  0  0  0
   -1.9497  -10.5393   30.3837 C   0  0  0  0  0  0  0  0  0  0  0  0
   -0.9101   -9.9668   29.4436 C   0  0  0  0  0  0  0  0  0  0  0  0
   -0.6795   -8.6376   29.7107 C   0  0  0  0  0  0  0  0  0  0  0  0
   -0.9155   -8.2999   31.3497 S   0  0  0  0  0  0  0  0  0  0  0  0
   -1.8751   -9.7213   31.5248 C   0  0  0  0  0  0  0  0  0  0  0  0
   -6.2244  -16.0316   30.0841 C   0  0  0  0  0  0  0  0  0  0  0  0
   -5.1197  -16.4733   29.4605 O   0  0  0  0  0  0  0  0  0  0  0  0
   -7.1152  -17.3080   30.5307 C   0  0  0  0  0  0  0  0  0  0  0  0
   -7.9692  -17.1159   29.3318 O   0  0  0  0  0  0  0  0  0  0  0  0
   -6.9703  -19.2097   30.4660 C   0  0  0  0  0  0  0  0  0  0  0  0
   -7.4202  -20.9017   31.4301 N   0  0  0  0  0  0  0  0  0  0  0  0
   -9.5366  -20.8712   31.4697 C   0  0  0  0  0  0  0  0  0  0  0  0
  -10.5886  -21.6619   32.1027 C   0  0  0  0  0  0  0  0  0  0  0  0
  -11.7181  -22.1144   31.4160 C   0  0  0  0  0  0  0  0  0  0  0  0
  -11.8154  -22.0417   30.0298 C   0  0  0  0  0  0  0  0  0  0  0  0
  -10.9183  -21.3852   29.1782 C   0  0  0  0  0  0  0  0  0  0  0  0
   -9.9167  -20.4767   29.7025 C   0  0  0  0  0  0  0  0  0  0  0  0
   -8.2936  -19.4363   28.9626 N   0  0  0  0  0  0  0  0  0  0  0  0
   -4.3782  -14.1348   29.9227 H   0  0  0  0  0  0  0  0  0  0  0  0
   -5.4556  -11.8859   29.2711 H   0  0  0  0  0  0  0  0  0  0  0  0
   -5.4086  -11.6658   31.0693 H   0  0  0  0  0  0  0  0  0  0  0  0
   -2.7962  -12.7203   29.8476 H   0  0  0  0  0  0  0  0  0  0  0  0
   -3.2309  -11.5874   28.7875 H   0  0  0  0  0  0  0  0  0  0  0  0
   -0.7392  -10.3103   28.4366 H   0  0  0  0  0  0  0  0  0  0  0  0
   -0.4005   -7.8768   28.9949 H   0  0  0  0  0  0  0  0  0  0  0  0
   -2.4499   -9.7543   32.4356 H   0  0  0  0  0  0  0  0  0  0  0  0
   -6.7168  -15.7290   29.1485 H   0  0  0  0  0  0  0  0  0  0  0  0
   -4.2795  -16.1142   29.7857 H   0  0  0  0  0  0  0  0  0  0  0  0
   -7.4839  -17.0241   31.5077 H   0  0  0  0  0  0  0  0  0  0  0  0
   -7.3054  -17.2950   28.6332 H   0  0  0  0  0  0  0  0  0  0  0  0
  -10.3814  -22.2739   32.9747 H   0  0  0  0  0  0  0  0  0  0  0  0
  -12.4244  -22.7502   31.9539 H   0  0  0  0  0  0  0  0  0  0  0  0
  -12.5853  -22.6360   29.5642 H   0  0  0  0  0  0  0  0  0  0  0  0
  -11.0037  -21.6092   28.1173 H   0  0  0  0  0  0  0  0  0  0  0  0
   -8.4650  -18.5306   28.5501 H   0  0  0  0  0  0  0  0  0  0  0  0
  1  2  2  0
  2  3  1  0
  3  4  1  0
  4  5  1  0
  5  6  1  0
  6  7  1  0
  7  8  2  0
  8  9  1  0
  9 10  1  0
  2 11  1  0
 11 12  1  0
 11 13  1  0
 13 14  1  0
 13 15  1  0
 15 16  2  0
 16 17  1  0
 17 18  2  0
 18 19  1  0
 19 20  2  0
 20 21  1  0
 21 22  2  0
 22 23  1  0
 10  6  2  0
 23 15  1  0
 22 17  1  0
  3 24  1  0
  4 25  1  0
  4 26  1  0
  5 27  1  0
  5 28  1  0
  7 29  1  0
  8 30  1  0
 10 31  1  0
 11 32  1  0
 12 33  1  0
 13 34  1  0
 14 35  1  0
 18 36  1  0
 19 37  1  0
 20 38  1  0
 21 39  1  0
 23 40  1  0
M  END
>  <Energy>  (264) 
1055.5196718429427

>  <compound_id>  (264) 
4896

>  <target_id>  (264) 
1

>  <reference_id>  (264) 
66

>  <inspiration_ids>  (264) 
[94, 66]

>  <energy_score>  (264) 
937.9852329564103

>  <distance_score>  (264) 
14.98413870509082

>  <path>  (264) 
/opt/xchem-fragalysis-2/maxwin/BulkDock/SCRATCH/511016/C4896-P66/C4896-P66.minimised.mol

>  <scratch_subdir>  (264) 
/opt/xchem-fragalysis-2/maxwin/BulkDock/SCRATCH/511016/C4896-P66

>  <fragmenstein_runtime>  (264) 
27.786300659179688

>  <fragmenstein_outcome>  (264) 
too moved

>  <fragmenstein_mode>  (264) 
expansion

>  <fragmenstein_error>  (264) 


$$$$
C4897-P94
     RDKit          3D

 42 44  0  0  0  0  0  0  0  0999 V2000
    4.4846  -13.6180   27.3012 O   0  0  0  0  0  0  0  0  0  0  0  0
    3.2655  -14.2549   26.7655 C   0  0  0  0  0  0  0  0  0  0  0  0
    1.4731  -13.7068   26.0736 C   0  0  0  0  0  0  0  0  0  0  0  0
    0.5921  -14.2723   24.4695 N   0  0  0  0  0  0  0  0  0  0  0  0
   -1.1943  -15.3571   24.5591 C   0  0  0  0  0  0  0  0  0  0  0  0
   -2.2251  -17.1435   25.3368 C   0  0  0  0  0  0  0  0  0  0  0  0
   -2.5700  -19.1021   25.5728 N   0  0  0  0  0  0  0  0  0  0  0  0
   -4.2008  -20.0225   25.4204 C   0  0  0  0  0  0  0  0  0  0  0  0
   -4.6319  -21.1734   24.9816 N   0  0  0  0  0  0  0  0  0  0  0  0
   -5.3662  -22.1703   26.1982 C   0  0  0  0  0  0  0  0  0  0  0  0
   -5.9109  -23.3570   25.6954 C   0  0  0  0  0  0  0  0  0  0  0  0
   -7.1845  -23.3092   25.9391 C   0  0  0  0  0  0  0  0  0  0  0  0
   -7.6816  -22.9361   27.1521 C   0  0  0  0  0  0  0  0  0  0  0  0
   -6.9720  -21.9827   27.6375 C   0  0  0  0  0  0  0  0  0  0  0  0
   -5.6498  -21.5518   27.2918 C   0  0  0  0  0  0  0  0  0  0  0  0
   -5.3227  -20.0081   26.5357 N   0  0  0  0  0  0  0  0  0  0  0  0
    2.2901  -13.3424   23.8529 C   0  0  0  0  0  0  0  0  0  0  0  0
    3.3558  -12.5301   22.4434 C   0  0  0  0  0  0  0  0  0  0  0  0
    4.4421  -11.3544   22.1468 C   0  0  0  0  0  0  0  0  0  0  0  0
    5.4703  -11.5886   21.0110 C   0  0  0  0  0  0  0  0  0  0  0  0
    5.0068  -12.8227   20.0492 S   0  0  0  0  0  0  0  0  0  0  0  0
    3.6345  -13.1198   21.1715 C   0  0  0  0  0  0  0  0  0  0  0  0
    4.8440  -13.0803   26.5757 H   0  0  0  0  0  0  0  0  0  0  0  0
    3.1020  -15.0014   27.5579 H   0  0  0  0  0  0  0  0  0  0  0  0
    3.8216  -14.6776   25.9074 H   0  0  0  0  0  0  0  0  0  0  0  0
    0.7134  -13.8051   26.7759 H   0  0  0  0  0  0  0  0  0  0  0  0
    1.3738  -12.6319   26.0141 H   0  0  0  0  0  0  0  0  0  0  0  0
   -1.5351  -15.1732   23.5662 H   0  0  0  0  0  0  0  0  0  0  0  0
   -1.7541  -14.6297   25.1910 H   0  0  0  0  0  0  0  0  0  0  0  0
   -2.6503  -16.8627   26.3033 H   0  0  0  0  0  0  0  0  0  0  0  0
   -1.3241  -17.6907   25.7768 H   0  0  0  0  0  0  0  0  0  0  0  0
   -1.8571  -19.6243   25.0892 H   0  0  0  0  0  0  0  0  0  0  0  0
   -5.6387  -23.8006   24.7188 H   0  0  0  0  0  0  0  0  0  0  0  0
   -7.6068  -23.8744   25.0990 H   0  0  0  0  0  0  0  0  0  0  0  0
   -8.6491  -23.2181   27.5837 H   0  0  0  0  0  0  0  0  0  0  0  0
   -7.6255  -21.1164   27.6070 H   0  0  0  0  0  0  0  0  0  0  0  0
   -5.1083  -19.3283   27.2206 H   0  0  0  0  0  0  0  0  0  0  0  0
    2.0676  -12.3529   24.2285 H   0  0  0  0  0  0  0  0  0  0  0  0
    3.1845  -13.8154   24.2663 H   0  0  0  0  0  0  0  0  0  0  0  0
    4.8857  -10.6691   22.8473 H   0  0  0  0  0  0  0  0  0  0  0  0
    6.4818  -11.2243   20.9211 H   0  0  0  0  0  0  0  0  0  0  0  0
    2.9766  -13.8695   20.8082 H   0  0  0  0  0  0  0  0  0  0  0  0
  1  2  1  0
  2  3  1  0
  3  4  1  0
  4  5  1  0
  5  6  1  0
  6  7  1  0
  7  8  1  0
  8  9  2  0
  9 10  1  0
 10 11  2  0
 11 12  1  0
 12 13  2  0
 13 14  1  0
 14 15  2  0
 15 16  1  0
  4 17  1  0
 17 18  1  0
 18 19  1  0
 19 20  2  0
 20 21  1  0
 21 22  1  0
 16  8  1  0
 22 18  2  0
 15 10  1  0
  1 23  1  0
  2 24  1  0
  2 25  1  0
  3 26  1  0
  3 27  1  0
  5 28  1  0
  5 29  1  0
  6 30  1  0
  6 31  1  0
  7 32  1  0
 11 33  1  0
 12 34  1  0
 13 35  1  0
 14 36  1  0
 16 37  1  0
 17 38  1  0
 17 39  1  0
 19 40  1  0
 20 41  1  0
 22 42  1  0
M  END
>  <Energy>  (265) 
1241.8829789364868

>  <compound_id>  (265) 
4897

>  <target_id>  (265) 
1

>  <reference_id>  (265) 
94

>  <inspiration_ids>  (265) 
[94, 66]

>  <energy_score>  (265) 
1155.9788059951345

>  <distance_score>  (265) 
11.894437581508063

>  <path>  (265) 
/opt/xchem-fragalysis-2/maxwin/BulkDock/SCRATCH/511016/C4897-P94/C4897-P94.minimised.mol

>  <scratch_subdir>  (265) 
/opt/xchem-fragalysis-2/maxwin/BulkDock/SCRATCH/511016/C4897-P94

>  <fragmenstein_runtime>  (265) 
25.42927312850952

>  <fragmenstein_outcome>  (265) 
too moved

>  <fragmenstein_mode>  (265) 
expansion

>  <fragmenstein_error>  (265) 


$$$$
C4897-P66
     RDKit          3D

 42 44  0  0  0  0  0  0  0  0999 V2000
    1.8136  -13.2080   25.4992 O   0  0  0  0  0  0  0  0  0  0  0  0
    3.0332  -13.4168   24.4870 C   0  0  0  0  0  0  0  0  0  0  0  0
    4.0602  -14.8537   24.7368 C   0  0  0  0  0  0  0  0  0  0  0  0
    3.6126  -16.2067   23.5784 N   0  0  0  0  0  0  0  0  0  0  0  0
    2.6164  -17.7426   24.5925 C   0  0  0  0  0  0  0  0  0  0  0  0
    0.6991  -18.6829   24.8969 C   0  0  0  0  0  0  0  0  0  0  0  0
   -1.1653  -18.3252   25.6824 N   0  0  0  0  0  0  0  0  0  0  0  0
   -2.5724  -19.4355   25.6614 C   0  0  0  0  0  0  0  0  0  0  0  0
   -4.1141  -19.9725   26.1115 N   0  0  0  0  0  0  0  0  0  0  0  0
   -4.8874  -21.1257   26.0571 C   0  0  0  0  0  0  0  0  0  0  0  0
   -5.5154  -22.1615   26.9626 C   0  0  0  0  0  0  0  0  0  0  0  0
   -6.3159  -23.1283   26.3809 C   0  0  0  0  0  0  0  0  0  0  0  0
   -6.2188  -23.7121   25.0797 C   0  0  0  0  0  0  0  0  0  0  0  0
   -5.4742  -22.9930   24.2210 C   0  0  0  0  0  0  0  0  0  0  0  0
   -4.7779  -21.4185   24.7704 C   0  0  0  0  0  0  0  0  0  0  0  0
   -3.4003  -20.4092   24.3713 N   0  0  0  0  0  0  0  0  0  0  0  0
    3.1355  -14.5954   22.5187 C   0  0  0  0  0  0  0  0  0  0  0  0
    3.9021  -13.1701   21.3205 C   0  0  0  0  0  0  0  0  0  0  0  0
    4.2678  -13.0788   19.8936 C   0  0  0  0  0  0  0  0  0  0  0  0
    5.5829  -12.8759   19.8333 C   0  0  0  0  0  0  0  0  0  0  0  0
    6.1946  -11.7085   20.7662 S   0  0  0  0  0  0  0  0  0  0  0  0
    4.4131  -11.8810   21.5578 C   0  0  0  0  0  0  0  0  0  0  0  0
    1.3195  -12.4554   25.1350 H   0  0  0  0  0  0  0  0  0  0  0  0
    3.3852  -12.5526   23.9670 H   0  0  0  0  0  0  0  0  0  0  0  0
    2.3094  -13.5764   23.7647 H   0  0  0  0  0  0  0  0  0  0  0  0
    4.1106  -15.0708   25.8075 H   0  0  0  0  0  0  0  0  0  0  0  0
    5.0824  -14.9171   24.5366 H   0  0  0  0  0  0  0  0  0  0  0  0
    3.1661  -18.6231   24.2333 H   0  0  0  0  0  0  0  0  0  0  0  0
    3.0792  -17.7535   25.6045 H   0  0  0  0  0  0  0  0  0  0  0  0
    0.6027  -19.4845   24.1623 H   0  0  0  0  0  0  0  0  0  0  0  0
    0.5446  -18.8378   25.9693 H   0  0  0  0  0  0  0  0  0  0  0  0
   -1.0250  -18.1073   26.6685 H   0  0  0  0  0  0  0  0  0  0  0  0
   -5.6526  -22.0138   27.9880 H   0  0  0  0  0  0  0  0  0  0  0  0
   -7.2910  -23.0671   26.8668 H   0  0  0  0  0  0  0  0  0  0  0  0
   -7.0051  -24.2468   24.5772 H   0  0  0  0  0  0  0  0  0  0  0  0
   -5.6763  -23.1279   23.1368 H   0  0  0  0  0  0  0  0  0  0  0  0
   -4.0059  -19.6682   24.6279 H   0  0  0  0  0  0  0  0  0  0  0  0
    4.0281  -15.0950   22.7445 H   0  0  0  0  0  0  0  0  0  0  0  0
    2.8153  -14.7824   21.4583 H   0  0  0  0  0  0  0  0  0  0  0  0
    3.8931  -13.6974   19.0663 H   0  0  0  0  0  0  0  0  0  0  0  0
    6.0659  -13.5455   19.2254 H   0  0  0  0  0  0  0  0  0  0  0  0
    4.2985  -11.1959   22.3750 H   0  0  0  0  0  0  0  0  0  0  0  0
  1  2  1  0
  2  3  1  0
  3  4  1  0
  4  5  1  0
  5  6  1  0
  6  7  1  0
  7  8  1  0
  8  9  2  0
  9 10  1  0
 10 11  2  0
 11 12  1  0
 12 13  2  0
 13 14  1  0
 14 15  2  0
 15 16  1  0
  4 17  1  0
 17 18  1  0
 18 19  1  0
 19 20  2  0
 20 21  1  0
 21 22  1  0
 16  8  1  0
 22 18  2  0
 15 10  1  0
  1 23  1  0
  2 24  1  0
  2 25  1  0
  3 26  1  0
  3 27  1  0
  5 28  1  0
  5 29  1  0
  6 30  1  0
  6 31  1  0
  7 32  1  0
 11 33  1  0
 12 34  1  0
 13 35  1  0
 14 36  1  0
 16 37  1  0
 17 38  1  0
 17 39  1  0
 19 40  1  0
 20 41  1  0
 22 42  1  0
M  END
>  <Energy>  (266) 
1350.9596049830359

>  <compound_id>  (266) 
4897

>  <target_id>  (266) 
1

>  <reference_id>  (266) 
66

>  <inspiration_ids>  (266) 
[94, 66]

>  <energy_score>  (266) 
1265.0554320417023

>  <distance_score>  (266) 
12.220240503773452

>  <path>  (266) 
/opt/xchem-fragalysis-2/maxwin/BulkDock/SCRATCH/511016/C4897-P66/C4897-P66.minimised.mol

>  <scratch_subdir>  (266) 
/opt/xchem-fragalysis-2/maxwin/BulkDock/SCRATCH/511016/C4897-P66

>  <fragmenstein_runtime>  (266) 
23.718331575393677

>  <fragmenstein_outcome>  (266) 
too moved

>  <fragmenstein_mode>  (266) 
expansion

>  <fragmenstein_error>  (266) 


$$$$
C4898-P94
     RDKit          3D

 39 41  0  0  0  0  0  0  0  0999 V2000
   -3.0809  -23.9297   23.4591 C   0  0  0  0  0  0  0  0  0  0  0  0
   -1.8167  -23.2200   23.4081 N   0  0  0  0  0  0  0  0  0  0  0  0
   -0.5854  -23.7569   23.4956 C   0  0  0  0  0  0  0  0  0  0  0  0
    0.3206  -22.8010   23.4472 N   0  0  0  0  0  0  0  0  0  0  0  0
   -0.2935  -21.4450   23.3645 C   0  0  0  0  0  0  0  0  0  0  0  0
    0.2765  -19.6585   23.4186 C   0  0  0  0  0  0  0  0  0  0  0  0
   -0.3363  -18.3545   22.1645 C   0  0  0  0  0  0  0  0  0  0  0  0
   -0.1280  -16.4472   21.6861 N   0  0  0  0  0  0  0  0  0  0  0  0
   -0.6790  -14.7851   22.5928 C   0  0  0  0  0  0  0  0  0  0  0  0
   -1.3369  -14.9881   23.5694 O   0  0  0  0  0  0  0  0  0  0  0  0
   -0.2780  -12.7393   22.4555 C   0  0  0  0  0  0  0  0  0  0  0  0
    0.6687  -12.1727   22.9164 O   0  0  0  0  0  0  0  0  0  0  0  0
   -1.4283  -11.6615   21.3889 N   0  0  0  0  0  0  0  0  0  0  0  0
   -1.4262  -10.1111   21.0810 C   0  0  0  0  0  0  0  0  0  0  0  0
   -1.6257   -9.1706   19.8012 C   0  0  0  0  0  0  0  0  0  0  0  0
   -0.6251   -7.9574   19.6082 C   0  0  0  0  0  0  0  0  0  0  0  0
   -0.1328   -7.4931   18.3238 C   0  0  0  0  0  0  0  0  0  0  0  0
    0.7156   -6.4073   18.4006 C   0  0  0  0  0  0  0  0  0  0  0  0
    0.8699   -5.8494   20.0045 S   0  0  0  0  0  0  0  0  0  0  0  0
   -0.0943   -7.1457   20.6017 C   0  0  0  0  0  0  0  0  0  0  0  0
   -1.5438  -19.3962   22.6184 C   0  0  0  0  0  0  0  0  0  0  0  0
   -2.4120  -20.8830   22.9799 C   0  0  0  0  0  0  0  0  0  0  0  0
   -1.6176  -21.8813   23.2961 C   0  0  0  0  0  0  0  0  0  0  0  0
   -3.0449  -24.6344   24.2925 H   0  0  0  0  0  0  0  0  0  0  0  0
   -3.9060  -23.2260   23.5882 H   0  0  0  0  0  0  0  0  0  0  0  0
   -3.1967  -24.4676   22.5146 H   0  0  0  0  0  0  0  0  0  0  0  0
   -0.3849  -24.8166   23.5766 H   0  0  0  0  0  0  0  0  0  0  0  0
    1.0297  -19.4750   24.1843 H   0  0  0  0  0  0  0  0  0  0  0  0
    0.4911  -16.2000   20.9274 H   0  0  0  0  0  0  0  0  0  0  0  0
   -2.1376  -12.2608   20.9858 H   0  0  0  0  0  0  0  0  0  0  0  0
   -2.2128   -9.7473   21.7521 H   0  0  0  0  0  0  0  0  0  0  0  0
   -0.4901   -9.8007   21.5602 H   0  0  0  0  0  0  0  0  0  0  0  0
   -2.5964   -8.6732   19.9303 H   0  0  0  0  0  0  0  0  0  0  0  0
   -1.7592   -9.7462   18.8780 H   0  0  0  0  0  0  0  0  0  0  0  0
   -0.3962   -7.9507   17.3811 H   0  0  0  0  0  0  0  0  0  0  0  0
    1.2152   -5.8970   17.5892 H   0  0  0  0  0  0  0  0  0  0  0  0
   -0.2492   -7.2268   21.6682 H   0  0  0  0  0  0  0  0  0  0  0  0
   -1.4959  -19.5207   23.6660 H   0  0  0  0  0  0  0  0  0  0  0  0
   -3.1775  -21.2498   22.2890 H   0  0  0  0  0  0  0  0  0  0  0  0
  1  2  1  0
  2  3  1  0
  3  4  2  0
  4  5  1  0
  5  6  2  0
  6  7  1  0
  7  8  1  0
  8  9  1  0
  9 10  2  0
  9 11  1  0
 11 12  2  0
 11 13  1  0
 13 14  1  0
 14 15  1  0
 15 16  1  0
 16 17  1  0
 17 18  2  0
 18 19  1  0
 19 20  1  0
  7 21  2  0
 21 22  1  0
 22 23  2  0
 23  2  1  0
 23  5  1  0
 20 16  2  0
  1 24  1  0
  1 25  1  0
  1 26  1  0
  3 27  1  0
  6 28  1  0
  8 29  1  0
 13 30  1  0
 14 31  1  0
 14 32  1  0
 15 33  1  0
 15 34  1  0
 17 35  1  0
 18 36  1  0
 20 37  1  0
 21 38  1  0
 22 39  1  0
M  END
>  <Energy>  (267) 
938.44628203181605

>  <compound_id>  (267) 
4898

>  <target_id>  (267) 
1

>  <reference_id>  (267) 
94

>  <inspiration_ids>  (267) 
[94, 66]

>  <energy_score>  (267) 
831.6765474751309

>  <distance_score>  (267) 
14.234008002490986

>  <path>  (267) 
/opt/xchem-fragalysis-2/maxwin/BulkDock/SCRATCH/511016/C4898-P94/C4898-P94.minimised.mol

>  <scratch_subdir>  (267) 
/opt/xchem-fragalysis-2/maxwin/BulkDock/SCRATCH/511016/C4898-P94

>  <fragmenstein_runtime>  (267) 
25.88806390762329

>  <fragmenstein_outcome>  (267) 
too moved

>  <fragmenstein_mode>  (267) 
expansion

>  <fragmenstein_error>  (267) 


$$$$
C4898-P66
     RDKit          3D

 39 41  0  0  0  0  0  0  0  0999 V2000
    0.7945  -19.2743   32.0332 C   0  0  0  0  0  0  0  0  0  0  0  0
    0.8597  -17.8344   31.9067 N   0  0  0  0  0  0  0  0  0  0  0  0
    0.1371  -16.9820   32.7039 C   0  0  0  0  0  0  0  0  0  0  0  0
   -0.1146  -15.8542   32.0738 N   0  0  0  0  0  0  0  0  0  0  0  0
    0.5047  -15.9849   30.8449 C   0  0  0  0  0  0  0  0  0  0  0  0
    0.2590  -15.3178   29.5844 C   0  0  0  0  0  0  0  0  0  0  0  0
    1.0422  -15.3825   28.2837 C   0  0  0  0  0  0  0  0  0  0  0  0
    1.6910  -14.2491   26.8849 N   0  0  0  0  0  0  0  0  0  0  0  0
    1.0522  -13.8507   25.2171 C   0  0  0  0  0  0  0  0  0  0  0  0
   -0.0417  -14.1395   24.6277 O   0  0  0  0  0  0  0  0  0  0  0  0
    2.6092  -13.0297   24.5540 C   0  0  0  0  0  0  0  0  0  0  0  0
    2.6577  -12.1526   23.7326 O   0  0  0  0  0  0  0  0  0  0  0  0
    3.9729  -13.8090   25.5754 N   0  0  0  0  0  0  0  0  0  0  0  0
    5.7407  -13.3817   25.7433 C   0  0  0  0  0  0  0  0  0  0  0  0
    6.7089  -12.1406   25.0363 C   0  0  0  0  0  0  0  0  0  0  0  0
    7.4606  -10.9104   25.5317 C   0  0  0  0  0  0  0  0  0  0  0  0
    7.3938  -10.1866   26.7521 C   0  0  0  0  0  0  0  0  0  0  0  0
    8.1432   -9.0224   26.7287 C   0  0  0  0  0  0  0  0  0  0  0  0
    8.9566   -8.7835   25.2476 S   0  0  0  0  0  0  0  0  0  0  0  0
    8.3072  -10.2356   24.6398 C   0  0  0  0  0  0  0  0  0  0  0  0
    2.0294  -16.4170   28.5569 C   0  0  0  0  0  0  0  0  0  0  0  0
    2.1254  -17.3160   29.7075 C   0  0  0  0  0  0  0  0  0  0  0  0
    1.2969  -17.1137   30.8094 C   0  0  0  0  0  0  0  0  0  0  0  0
    0.2135  -19.5427   32.9191 H   0  0  0  0  0  0  0  0  0  0  0  0
    0.3195  -19.6808   31.1368 H   0  0  0  0  0  0  0  0  0  0  0  0
    1.8164  -19.6489   32.1291 H   0  0  0  0  0  0  0  0  0  0  0  0
   -0.2472  -17.2602   33.6770 H   0  0  0  0  0  0  0  0  0  0  0  0
   -0.6391  -14.6995   29.7108 H   0  0  0  0  0  0  0  0  0  0  0  0
    2.5894  -13.7731   27.0471 H   0  0  0  0  0  0  0  0  0  0  0  0
    3.6363  -14.5599   26.1065 H   0  0  0  0  0  0  0  0  0  0  0  0
    6.2212  -14.3641   25.6787 H   0  0  0  0  0  0  0  0  0  0  0  0
    5.7794  -13.1663   26.8216 H   0  0  0  0  0  0  0  0  0  0  0  0
    7.5589  -12.7254   24.6669 H   0  0  0  0  0  0  0  0  0  0  0  0
    6.1851  -11.6674   24.2151 H   0  0  0  0  0  0  0  0  0  0  0  0
    6.8008  -10.4773   27.6106 H   0  0  0  0  0  0  0  0  0  0  0  0
    8.2500   -8.2953   27.5223 H   0  0  0  0  0  0  0  0  0  0  0  0
    8.5458  -10.5285   23.6251 H   0  0  0  0  0  0  0  0  0  0  0  0
    2.8107  -16.6246   27.8278 H   0  0  0  0  0  0  0  0  0  0  0  0
    2.8434  -18.1312   29.6887 H   0  0  0  0  0  0  0  0  0  0  0  0
  1  2  1  0
  2  3  1  0
  3  4  2  0
  4  5  1  0
  5  6  2  0
  6  7  1  0
  7  8  1  0
  8  9  1  0
  9 10  2  0
  9 11  1  0
 11 12  2  0
 11 13  1  0
 13 14  1  0
 14 15  1  0
 15 16  1  0
 16 17  1  0
 17 18  2  0
 18 19  1  0
 19 20  1  0
  7 21  2  0
 21 22  1  0
 22 23  2  0
 23  2  1  0
 23  5  1  0
 20 16  2  0
  1 24  1  0
  1 25  1  0
  1 26  1  0
  3 27  1  0
  6 28  1  0
  8 29  1  0
 13 30  1  0
 14 31  1  0
 14 32  1  0
 15 33  1  0
 15 34  1  0
 17 35  1  0
 18 36  1  0
 20 37  1  0
 21 38  1  0
 22 39  1  0
M  END
>  <Energy>  (268) 
434.3111881541833

>  <compound_id>  (268) 
4898

>  <target_id>  (268) 
1

>  <reference_id>  (268) 
66

>  <inspiration_ids>  (268) 
[94, 66]

>  <energy_score>  (268) 
327.5414535974802

>  <distance_score>  (268) 
14.38432613078291

>  <path>  (268) 
/opt/xchem-fragalysis-2/maxwin/BulkDock/SCRATCH/511016/C4898-P66/C4898-P66.minimised.mol

>  <scratch_subdir>  (268) 
/opt/xchem-fragalysis-2/maxwin/BulkDock/SCRATCH/511016/C4898-P66

>  <fragmenstein_runtime>  (268) 
31.016283750534058

>  <fragmenstein_outcome>  (268) 
too moved

>  <fragmenstein_mode>  (268) 
expansion

>  <fragmenstein_error>  (268) 


$$$$
C4899-P94
     RDKit          3D

 45 48  0  0  0  0  0  0  0  0999 V2000
   -2.3890  -21.8512   23.5496 C   0  0  0  0  0  0  0  0  0  0  0  0
   -2.2922  -20.5262   24.0636 C   0  0  0  0  0  0  0  0  0  0  0  0
   -2.6064  -19.5252   25.5154 C   0  0  0  0  0  0  0  0  0  0  0  0
   -2.1321  -17.6591   25.6689 N   0  0  0  0  0  0  0  0  0  0  0  0
   -2.3962  -15.8226   25.0058 C   0  0  0  0  0  0  0  0  0  0  0  0
   -1.4489  -14.0741   25.4316 C   0  0  0  0  0  0  0  0  0  0  0  0
    0.1113  -13.4999   26.5537 N   0  0  0  0  0  0  0  0  0  0  0  0
    0.9114  -11.5208   26.6926 C   0  0  0  0  0  0  0  0  0  0  0  0
    0.0152   -9.5766   27.0586 C   0  0  0  0  0  0  0  0  0  0  0  0
    0.3534   -8.1562   25.4392 C   0  0  0  0  0  0  0  0  0  0  0  0
    1.9076   -7.8469   23.9865 C   0  0  0  0  0  0  0  0  0  0  0  0
    2.8932   -8.3929   22.9410 C   0  0  0  0  0  0  0  0  0  0  0  0
    4.6320   -8.1918   23.0546 C   0  0  0  0  0  0  0  0  0  0  0  0
    5.2079   -7.3313   24.3977 S   0  0  0  0  0  0  0  0  0  0  0  0
    3.4376   -6.9732   24.4900 C   0  0  0  0  0  0  0  0  0  0  0  0
   -1.1031  -14.8708   27.5461 C   0  0  0  0  0  0  0  0  0  0  0  0
   -1.9281  -16.7669   27.2808 C   0  0  0  0  0  0  0  0  0  0  0  0
   -3.8701  -20.6304   25.4914 C   0  0  0  0  0  0  0  0  0  0  0  0
   -5.2968  -20.5484   25.9183 N   0  0  0  0  0  0  0  0  0  0  0  0
   -5.7875  -21.7689   26.1171 C   0  0  0  0  0  0  0  0  0  0  0  0
   -4.9578  -22.6860   25.6377 N   0  0  0  0  0  0  0  0  0  0  0  0
   -3.8280  -22.0602   25.1771 C   0  0  0  0  0  0  0  0  0  0  0  0
   -2.9564  -22.7387   24.3666 C   0  0  0  0  0  0  0  0  0  0  0  0
   -1.9072  -22.1224   22.6170 H   0  0  0  0  0  0  0  0  0  0  0  0
   -1.6110  -20.0337   23.3094 H   0  0  0  0  0  0  0  0  0  0  0  0
   -3.3952  -15.7140   24.6415 H   0  0  0  0  0  0  0  0  0  0  0  0
   -1.8583  -15.7133   24.1101 H   0  0  0  0  0  0  0  0  0  0  0  0
   -0.8216  -14.1809   24.5316 H   0  0  0  0  0  0  0  0  0  0  0  0
   -2.1686  -13.2433   25.4639 H   0  0  0  0  0  0  0  0  0  0  0  0
    1.5472  -11.4411   27.5722 H   0  0  0  0  0  0  0  0  0  0  0  0
    1.3704  -11.7023   25.7444 H   0  0  0  0  0  0  0  0  0  0  0  0
    0.6953   -9.1589   27.8411 H   0  0  0  0  0  0  0  0  0  0  0  0
   -0.8836   -9.7396   27.5977 H   0  0  0  0  0  0  0  0  0  0  0  0
   -0.5349   -7.9882   24.8012 H   0  0  0  0  0  0  0  0  0  0  0  0
    0.1374   -7.2292   26.0424 H   0  0  0  0  0  0  0  0  0  0  0  0
    2.3244   -8.7922   22.1028 H   0  0  0  0  0  0  0  0  0  0  0  0
    5.4504   -8.6069   22.4934 H   0  0  0  0  0  0  0  0  0  0  0  0
    3.4712   -6.1497   25.2214 H   0  0  0  0  0  0  0  0  0  0  0  0
   -0.5914  -15.1948   28.4726 H   0  0  0  0  0  0  0  0  0  0  0  0
   -2.0154  -14.4967   27.8878 H   0  0  0  0  0  0  0  0  0  0  0  0
   -2.9312  -16.8154   27.6703 H   0  0  0  0  0  0  0  0  0  0  0  0
   -1.1469  -17.4670   27.5491 H   0  0  0  0  0  0  0  0  0  0  0  0
   -6.7013  -22.0275   26.6326 H   0  0  0  0  0  0  0  0  0  0  0  0
   -5.1829  -23.6513   25.4626 H   0  0  0  0  0  0  0  0  0  0  0  0
   -3.0390  -23.7905   24.1261 H   0  0  0  0  0  0  0  0  0  0  0  0
  1  2  2  0
  2  3  1  0
  3  4  1  0
  4  5  1  0
  5  6  1  0
  6  7  1  0
  7  8  1  0
  8  9  1  0
  9 10  1  0
 10 11  1  0
 11 12  1  0
 12 13  2  0
 13 14  1  0
 14 15  1  0
  7 16  1  0
 16 17  1  0
  3 18  2  0
 18 19  1  0
 19 20  2  0
 20 21  1  0
 21 22  1  0
 22 23  2  0
 23  1  1  0
 17  4  1  0
 22 18  1  0
 15 11  2  0
  1 24  1  0
  2 25  1  0
  5 26  1  0
  5 27  1  0
  6 28  1  0
  6 29  1  0
  8 30  1  0
  8 31  1  0
  9 32  1  0
  9 33  1  0
 10 34  1  0
 10 35  1  0
 12 36  1  0
 13 37  1  0
 15 38  1  0
 16 39  1  0
 16 40  1  0
 17 41  1  0
 17 42  1  0
 20 43  1  0
 21 44  1  0
 23 45  1  0
M  END
>  <Energy>  (269) 
1705.7873612469364

>  <compound_id>  (269) 
4899

>  <target_id>  (269) 
1

>  <reference_id>  (269) 
94

>  <inspiration_ids>  (269) 
[94, 66]

>  <energy_score>  (269) 
1531.1457861844337

>  <distance_score>  (269) 
12.189195345733213

>  <path>  (269) 
/opt/xchem-fragalysis-2/maxwin/BulkDock/SCRATCH/511016/C4899-P94/C4899-P94.minimised.mol

>  <scratch_subdir>  (269) 
/opt/xchem-fragalysis-2/maxwin/BulkDock/SCRATCH/511016/C4899-P94

>  <fragmenstein_runtime>  (269) 
23.88762927055359

>  <fragmenstein_outcome>  (269) 
too moved

>  <fragmenstein_mode>  (269) 
expansion

>  <fragmenstein_error>  (269) 


$$$$
C4899-P66
     RDKit          3D

 45 48  0  0  0  0  0  0  0  0999 V2000
   -5.0732  -18.4456   27.6656 C   0  0  0  0  0  0  0  0  0  0  0  0
   -3.2904  -17.8060   27.3818 C   0  0  0  0  0  0  0  0  0  0  0  0
   -2.7780  -16.6279   26.9549 C   0  0  0  0  0  0  0  0  0  0  0  0
   -2.7508  -16.1929   24.9981 N   0  0  0  0  0  0  0  0  0  0  0  0
   -1.5699  -15.1228   24.3386 C   0  0  0  0  0  0  0  0  0  0  0  0
   -0.9754  -14.8731   22.4633 C   0  0  0  0  0  0  0  0  0  0  0  0
   -2.0341  -14.5660   20.9231 N   0  0  0  0  0  0  0  0  0  0  0  0
   -2.1624  -12.7927   20.3563 C   0  0  0  0  0  0  0  0  0  0  0  0
   -2.3976  -11.7760   18.9866 C   0  0  0  0  0  0  0  0  0  0  0  0
   -1.8022  -11.7459   17.5432 C   0  0  0  0  0  0  0  0  0  0  0  0
   -1.3706  -10.3775   16.8743 C   0  0  0  0  0  0  0  0  0  0  0  0
   -1.2784   -9.0657   17.4777 C   0  0  0  0  0  0  0  0  0  0  0  0
   -0.5704   -8.1477   16.7249 C   0  0  0  0  0  0  0  0  0  0  0  0
   -0.0923   -8.7955   15.2252 S   0  0  0  0  0  0  0  0  0  0  0  0
   -0.8772  -10.2847   15.5714 C   0  0  0  0  0  0  0  0  0  0  0  0
   -3.0151  -15.9800   21.0166 C   0  0  0  0  0  0  0  0  0  0  0  0
   -3.4953  -15.7148   23.1494 C   0  0  0  0  0  0  0  0  0  0  0  0
   -3.9742  -16.3765   28.4217 C   0  0  0  0  0  0  0  0  0  0  0  0
   -4.0161  -15.8161   29.8761 N   0  0  0  0  0  0  0  0  0  0  0  0
   -5.5794  -15.3881   30.0860 C   0  0  0  0  0  0  0  0  0  0  0  0
   -6.3170  -16.4223   30.0822 N   0  0  0  0  0  0  0  0  0  0  0  0
   -5.5962  -17.0317   29.1360 C   0  0  0  0  0  0  0  0  0  0  0  0
   -6.1539  -18.1084   28.5427 C   0  0  0  0  0  0  0  0  0  0  0  0
   -5.3828  -19.3259   27.0638 H   0  0  0  0  0  0  0  0  0  0  0  0
   -2.6316  -18.6120   26.8966 H   0  0  0  0  0  0  0  0  0  0  0  0
   -1.8344  -14.3574   25.1193 H   0  0  0  0  0  0  0  0  0  0  0  0
   -0.5917  -14.7605   24.4953 H   0  0  0  0  0  0  0  0  0  0  0  0
   -0.1911  -14.1321   22.5820 H   0  0  0  0  0  0  0  0  0  0  0  0
   -0.3716  -15.7137   21.9913 H   0  0  0  0  0  0  0  0  0  0  0  0
   -3.1490  -12.4881   20.6459 H   0  0  0  0  0  0  0  0  0  0  0  0
   -1.5505  -12.1713   20.9855 H   0  0  0  0  0  0  0  0  0  0  0  0
   -3.4849  -11.7460   18.8331 H   0  0  0  0  0  0  0  0  0  0  0  0
   -2.2141  -10.7861   19.4255 H   0  0  0  0  0  0  0  0  0  0  0  0
   -1.0187  -12.4973   17.4468 H   0  0  0  0  0  0  0  0  0  0  0  0
   -2.5960  -12.1250   16.8809 H   0  0  0  0  0  0  0  0  0  0  0  0
   -1.6100   -8.8374   18.4834 H   0  0  0  0  0  0  0  0  0  0  0  0
   -0.3076   -7.1362   17.0012 H   0  0  0  0  0  0  0  0  0  0  0  0
   -0.8336  -11.0754   14.8345 H   0  0  0  0  0  0  0  0  0  0  0  0
   -3.5153  -16.7198   20.3951 H   0  0  0  0  0  0  0  0  0  0  0  0
   -2.1289  -16.6168   20.6436 H   0  0  0  0  0  0  0  0  0  0  0  0
   -4.0207  -16.4790   22.4111 H   0  0  0  0  0  0  0  0  0  0  0  0
   -4.3065  -15.0489   23.4639 H   0  0  0  0  0  0  0  0  0  0  0  0
   -5.8964  -14.3464   30.1941 H   0  0  0  0  0  0  0  0  0  0  0  0
   -7.2835  -16.5819   30.3354 H   0  0  0  0  0  0  0  0  0  0  0  0
   -7.1043  -18.5554   28.7453 H   0  0  0  0  0  0  0  0  0  0  0  0
  1  2  2  0
  2  3  1  0
  3  4  1  0
  4  5  1  0
  5  6  1  0
  6  7  1  0
  7  8  1  0
  8  9  1  0
  9 10  1  0
 10 11  1  0
 11 12  1  0
 12 13  2  0
 13 14  1  0
 14 15  1  0
  7 16  1  0
 16 17  1  0
  3 18  2  0
 18 19  1  0
 19 20  2  0
 20 21  1  0
 21 22  1  0
 22 23  2  0
 23  1  1  0
 17  4  1  0
 22 18  1  0
 15 11  2  0
  1 24  1  0
  2 25  1  0
  5 26  1  0
  5 27  1  0
  6 28  1  0
  6 29  1  0
  8 30  1  0
  8 31  1  0
  9 32  1  0
  9 33  1  0
 10 34  1  0
 10 35  1  0
 12 36  1  0
 13 37  1  0
 15 38  1  0
 16 39  1  0
 16 40  1  0
 17 41  1  0
 17 42  1  0
 20 43  1  0
 21 44  1  0
 23 45  1  0
M  END
>  <Energy>  (270) 
1486.9658305698331

>  <compound_id>  (270) 
4899

>  <target_id>  (270) 
1

>  <reference_id>  (270) 
66

>  <inspiration_ids>  (270) 
[94, 66]

>  <energy_score>  (270) 
1312.3242555073377

>  <distance_score>  (270) 
13.414138107686073

>  <path>  (270) 
/opt/xchem-fragalysis-2/maxwin/BulkDock/SCRATCH/511016/C4899-P66/C4899-P66.minimised.mol

>  <scratch_subdir>  (270) 
/opt/xchem-fragalysis-2/maxwin/BulkDock/SCRATCH/511016/C4899-P66

>  <fragmenstein_runtime>  (270) 
24.57206130027771

>  <fragmenstein_outcome>  (270) 
too moved

>  <fragmenstein_mode>  (270) 
expansion

>  <fragmenstein_error>  (270) 


$$$$
C4900-P94
     RDKit          3D

 38 41  0  0  0  0  0  0  0  0999 V2000
   -4.4222  -17.7414   14.1693 O   0  0  0  0  0  0  0  0  0  0  0  0
   -4.3930  -17.2542   15.2690 C   0  0  0  0  0  0  0  0  0  0  0  0
   -3.4266  -16.0762   15.3450 C   0  0  0  0  0  0  0  0  0  0  0  0
   -3.7000  -14.7095   15.7291 C   0  0  0  0  0  0  0  0  0  0  0  0
   -2.6670  -13.8163   15.4891 C   0  0  0  0  0  0  0  0  0  0  0  0
   -1.3838  -14.5537   14.6432 S   0  0  0  0  0  0  0  0  0  0  0  0
   -2.1732  -16.0847   14.7214 C   0  0  0  0  0  0  0  0  0  0  0  0
   -5.1911  -17.5531   16.4583 N   0  0  0  0  0  0  0  0  0  0  0  0
   -6.3935  -18.5006   16.6463 C   0  0  0  0  0  0  0  0  0  0  0  0
   -7.1411  -18.7883   18.0014 C   0  0  0  0  0  0  0  0  0  0  0  0
   -6.2690  -19.6425   18.7911 N   0  0  0  0  0  0  0  0  0  0  0  0
   -6.7576  -20.4180   19.8828 C   0  0  0  0  0  0  0  0  0  0  0  0
   -5.9436  -21.4785   20.3759 C   0  0  0  0  0  0  0  0  0  0  0  0
   -6.3253  -22.3892   21.3798 C   0  0  0  0  0  0  0  0  0  0  0  0
   -7.5860  -22.3423   21.9500 C   0  0  0  0  0  0  0  0  0  0  0  0
   -8.4230  -21.3400   21.4764 C   0  0  0  0  0  0  0  0  0  0  0  0
   -9.7276  -21.0547   21.8010 N   0  0  0  0  0  0  0  0  0  0  0  0
  -10.0810  -19.9232   21.1390 C   0  0  0  0  0  0  0  0  0  0  0  0
   -9.1156  -19.5007   20.3533 N   0  0  0  0  0  0  0  0  0  0  0  0
   -8.0530  -20.3824   20.5181 C   0  0  0  0  0  0  0  0  0  0  0  0
   -4.9301  -19.0310   18.7919 C   0  0  0  0  0  0  0  0  0  0  0  0
   -4.4855  -18.6411   17.3177 C   0  0  0  0  0  0  0  0  0  0  0  0
   -4.6549  -14.4003   16.1353 H   0  0  0  0  0  0  0  0  0  0  0  0
   -2.6472  -12.7572   15.7071 H   0  0  0  0  0  0  0  0  0  0  0  0
   -1.7041  -16.9335   14.2414 H   0  0  0  0  0  0  0  0  0  0  0  0
   -6.2489  -19.4257   16.0607 H   0  0  0  0  0  0  0  0  0  0  0  0
   -7.1492  -17.9752   16.0416 H   0  0  0  0  0  0  0  0  0  0  0  0
   -7.3797  -17.8608   18.5293 H   0  0  0  0  0  0  0  0  0  0  0  0
   -8.0772  -19.3075   17.7659 H   0  0  0  0  0  0  0  0  0  0  0  0
   -4.9515  -21.6143   19.9493 H   0  0  0  0  0  0  0  0  0  0  0  0
   -5.6149  -23.1481   21.6992 H   0  0  0  0  0  0  0  0  0  0  0  0
   -7.8901  -23.0426   22.7164 H   0  0  0  0  0  0  0  0  0  0  0  0
  -10.3013  -21.5756   22.4483 H   0  0  0  0  0  0  0  0  0  0  0  0
  -11.0538  -19.4629   21.2438 H   0  0  0  0  0  0  0  0  0  0  0  0
   -4.1731  -19.7079   19.1981 H   0  0  0  0  0  0  0  0  0  0  0  0
   -4.9498  -18.1217   19.3986 H   0  0  0  0  0  0  0  0  0  0  0  0
   -4.3054  -19.5452   16.7103 H   0  0  0  0  0  0  0  0  0  0  0  0
   -3.4724  -18.2285   17.4455 H   0  0  0  0  0  0  0  0  0  0  0  0
  1  2  2  0
  2  3  1  0
  3  4  1  0
  4  5  2  0
  5  6  1  0
  6  7  1  0
  2  8  1  0
  8  9  1  0
  9 10  1  0
 10 11  1  0
 11 12  1  0
 12 13  2  0
 13 14  1  0
 14 15  2  0
 15 16  1  0
 16 17  1  0
 17 18  1  0
 18 19  2  0
 19 20  1  0
 11 21  1  0
 21 22  1  0
  7  3  2  0
 22  8  1  0
 20 12  1  0
 20 16  2  0
  4 23  1  0
  5 24  1  0
  7 25  1  0
  9 26  1  0
  9 27  1  0
 10 28  1  0
 10 29  1  0
 13 30  1  0
 14 31  1  0
 15 32  1  0
 17 33  1  0
 18 34  1  0
 21 35  1  0
 21 36  1  0
 22 37  1  0
 22 38  1  0
M  END
>  <Energy>  (271) 
179.83373834340989

>  <compound_id>  (271) 
4900

>  <target_id>  (271) 
1

>  <reference_id>  (271) 
94

>  <inspiration_ids>  (271) 
[94, 66]

>  <energy_score>  (271) 
40.41146121191673

>  <distance_score>  (271) 
16.19844934121583

>  <path>  (271) 
/opt/xchem-fragalysis-2/maxwin/BulkDock/SCRATCH/511016/C4900-P94/C4900-P94.minimised.mol

>  <scratch_subdir>  (271) 
/opt/xchem-fragalysis-2/maxwin/BulkDock/SCRATCH/511016/C4900-P94

>  <fragmenstein_runtime>  (271) 
42.53926634788513

>  <fragmenstein_outcome>  (271) 
too moved

>  <fragmenstein_mode>  (271) 
expansion

>  <fragmenstein_error>  (271) 


$$$$
C4900-P66
     RDKit          3D

 38 41  0  0  0  0  0  0  0  0999 V2000
    3.3196  -14.4439   24.0238 O   0  0  0  0  0  0  0  0  0  0  0  0
    2.5049  -13.8452   23.3328 C   0  0  0  0  0  0  0  0  0  0  0  0
    3.4557  -12.6939   22.0711 C   0  0  0  0  0  0  0  0  0  0  0  0
    4.1839  -11.0322   22.2684 C   0  0  0  0  0  0  0  0  0  0  0  0
    5.2603  -10.5795   21.4930 C   0  0  0  0  0  0  0  0  0  0  0  0
    5.6362  -11.7389   20.3162 S   0  0  0  0  0  0  0  0  0  0  0  0
    4.3524  -12.8841   20.8771 C   0  0  0  0  0  0  0  0  0  0  0  0
    0.5081  -13.8014   23.4890 N   0  0  0  0  0  0  0  0  0  0  0  0
   -0.2985  -14.3549   24.4708 C   0  0  0  0  0  0  0  0  0  0  0  0
   -1.9879  -14.8045   25.3883 C   0  0  0  0  0  0  0  0  0  0  0  0
   -2.7407  -16.4557   25.5038 N   0  0  0  0  0  0  0  0  0  0  0  0
   -3.5254  -17.0788   27.1758 C   0  0  0  0  0  0  0  0  0  0  0  0
   -3.3511  -16.2074   28.2699 C   0  0  0  0  0  0  0  0  0  0  0  0
   -4.0379  -16.0673   29.9075 C   0  0  0  0  0  0  0  0  0  0  0  0
   -5.3697  -16.4703   30.1899 C   0  0  0  0  0  0  0  0  0  0  0  0
   -5.9103  -17.3855   29.2103 C   0  0  0  0  0  0  0  0  0  0  0  0
   -7.0445  -18.0259   29.2215 N   0  0  0  0  0  0  0  0  0  0  0  0
   -6.8991  -19.0338   28.3781 C   0  0  0  0  0  0  0  0  0  0  0  0
   -5.8746  -19.1337   27.5703 N   0  0  0  0  0  0  0  0  0  0  0  0
   -5.0280  -18.0670   27.8240 C   0  0  0  0  0  0  0  0  0  0  0  0
   -2.6983  -15.4327   23.8357 C   0  0  0  0  0  0  0  0  0  0  0  0
   -0.9106  -14.9143   22.7127 C   0  0  0  0  0  0  0  0  0  0  0  0
    3.6061  -10.2520   22.7287 H   0  0  0  0  0  0  0  0  0  0  0  0
    5.7156   -9.5992   21.4967 H   0  0  0  0  0  0  0  0  0  0  0  0
    4.1312  -13.3341   19.9376 H   0  0  0  0  0  0  0  0  0  0  0  0
    0.6103  -13.9811   25.1090 H   0  0  0  0  0  0  0  0  0  0  0  0
   -1.0151  -13.5934   24.8363 H   0  0  0  0  0  0  0  0  0  0  0  0
   -1.9717  -14.7816   26.4481 H   0  0  0  0  0  0  0  0  0  0  0  0
   -1.3767  -15.4448   24.7404 H   0  0  0  0  0  0  0  0  0  0  0  0
   -2.5326  -15.4674   28.1001 H   0  0  0  0  0  0  0  0  0  0  0  0
   -3.5314  -15.3573   30.5744 H   0  0  0  0  0  0  0  0  0  0  0  0
   -5.8948  -16.2145   31.1002 H   0  0  0  0  0  0  0  0  0  0  0  0
   -7.7805  -17.8686   29.8790 H   0  0  0  0  0  0  0  0  0  0  0  0
   -7.7280  -19.6338   28.2118 H   0  0  0  0  0  0  0  0  0  0  0  0
   -3.5426  -14.7924   23.7673 H   0  0  0  0  0  0  0  0  0  0  0  0
   -3.4392  -15.8708   23.1983 H   0  0  0  0  0  0  0  0  0  0  0  0
   -1.4365  -14.7063   21.7389 H   0  0  0  0  0  0  0  0  0  0  0  0
   -0.3445  -15.6954   22.0663 H   0  0  0  0  0  0  0  0  0  0  0  0
  1  2  2  0
  2  3  1  0
  3  4  1  0
  4  5  2  0
  5  6  1  0
  6  7  1  0
  2  8  1  0
  8  9  1  0
  9 10  1  0
 10 11  1  0
 11 12  1  0
 12 13  2  0
 13 14  1  0
 14 15  2  0
 15 16  1  0
 16 17  1  0
 17 18  1  0
 18 19  2  0
 19 20  1  0
 11 21  1  0
 21 22  1  0
  7  3  2  0
 22  8  1  0
 20 12  1  0
 20 16  2  0
  4 23  1  0
  5 24  1  0
  7 25  1  0
  9 26  1  0
  9 27  1  0
 10 28  1  0
 10 29  1  0
 13 30  1  0
 14 31  1  0
 15 32  1  0
 17 33  1  0
 18 34  1  0
 21 35  1  0
 21 36  1  0
 22 37  1  0
 22 38  1  0
M  END
>  <Energy>  (272) 
1500.0765571769728

>  <compound_id>  (272) 
4900

>  <target_id>  (272) 
1

>  <reference_id>  (272) 
66

>  <inspiration_ids>  (272) 
[94, 66]

>  <energy_score>  (272) 
1360.6542800454765

>  <distance_score>  (272) 
12.212932208833646

>  <path>  (272) 
/opt/xchem-fragalysis-2/maxwin/BulkDock/SCRATCH/511016/C4900-P66/C4900-P66.minimised.mol

>  <scratch_subdir>  (272) 
/opt/xchem-fragalysis-2/maxwin/BulkDock/SCRATCH/511016/C4900-P66

>  <fragmenstein_runtime>  (272) 
26.030712842941284

>  <fragmenstein_outcome>  (272) 
too moved

>  <fragmenstein_mode>  (272) 
expansion

>  <fragmenstein_error>  (272) 


$$$$
C4901-P94
     RDKit          3D

 35 37  0  0  0  0  0  0  0  0999 V2000
   -0.9616  -12.0644   22.0047 O   0  0  0  0  0  0  0  0  0  0  0  0
   -0.1090  -12.7348   22.8820 C   0  0  0  0  0  0  0  0  0  0  0  0
    1.9549  -11.9298   23.0783 C   0  0  0  0  0  0  0  0  0  0  0  0
    3.4211  -10.4511   22.6055 C   0  0  0  0  0  0  0  0  0  0  0  0
    3.0910   -8.9436   21.8995 C   0  0  0  0  0  0  0  0  0  0  0  0
    4.1348   -8.1820   21.4337 C   0  0  0  0  0  0  0  0  0  0  0  0
    5.6009   -8.9494   21.6978 S   0  0  0  0  0  0  0  0  0  0  0  0
    4.8569  -10.3110   22.4647 C   0  0  0  0  0  0  0  0  0  0  0  0
   -0.4488  -14.2789   24.2070 N   0  0  0  0  0  0  0  0  0  0  0  0
   -2.2027  -15.3534   24.9004 C   0  0  0  0  0  0  0  0  0  0  0  0
   -2.9725  -16.9491   26.3549 C   0  0  0  0  0  0  0  0  0  0  0  0
   -4.6649  -18.0153   27.3910 C   0  0  0  0  0  0  0  0  0  0  0  0
   -5.3848  -19.4415   26.8366 N   0  0  0  0  0  0  0  0  0  0  0  0
   -6.6127  -20.2061   27.2248 C   0  0  0  0  0  0  0  0  0  0  0  0
   -7.1624  -21.8168   27.2756 C   0  0  0  0  0  0  0  0  0  0  0  0
   -8.5490  -22.5340   27.9762 C   0  0  0  0  0  0  0  0  0  0  0  0
   -9.7869  -21.5595   28.2496 C   0  0  0  0  0  0  0  0  0  0  0  0
   -9.0759  -19.8576   28.1649 C   0  0  0  0  0  0  0  0  0  0  0  0
   -7.3447  -19.3311   28.0742 C   0  0  0  0  0  0  0  0  0  0  0  0
   -6.1287  -18.1543   28.4756 N   0  0  0  0  0  0  0  0  0  0  0  0
    2.7751  -12.7071   23.1033 H   0  0  0  0  0  0  0  0  0  0  0  0
    1.9830  -11.9142   24.1686 H   0  0  0  0  0  0  0  0  0  0  0  0
    2.0607   -8.6256   21.7375 H   0  0  0  0  0  0  0  0  0  0  0  0
    4.0753   -7.2236   20.9364 H   0  0  0  0  0  0  0  0  0  0  0  0
    5.6657  -10.8376   22.9297 H   0  0  0  0  0  0  0  0  0  0  0  0
    0.3674  -14.4510   24.7259 H   0  0  0  0  0  0  0  0  0  0  0  0
   -2.4883  -14.3962   25.2643 H   0  0  0  0  0  0  0  0  0  0  0  0
   -1.9379  -14.9726   25.9220 H   0  0  0  0  0  0  0  0  0  0  0  0
   -2.2655  -17.7923   26.1284 H   0  0  0  0  0  0  0  0  0  0  0  0
   -2.5092  -16.6324   27.3157 H   0  0  0  0  0  0  0  0  0  0  0  0
   -6.4354  -22.4993   26.8272 H   0  0  0  0  0  0  0  0  0  0  0  0
   -8.8225  -23.5798   27.9565 H   0  0  0  0  0  0  0  0  0  0  0  0
  -10.7891  -21.7955   28.5770 H   0  0  0  0  0  0  0  0  0  0  0  0
   -9.4927  -20.5245   27.2563 H   0  0  0  0  0  0  0  0  0  0  0  0
   -6.3750  -17.3745   29.0629 H   0  0  0  0  0  0  0  0  0  0  0  0
  1  2  2  0
  2  3  1  0
  3  4  1  0
  4  5  1  0
  5  6  2  0
  6  7  1  0
  7  8  1  0
  2  9  1  0
  9 10  1  0
 10 11  1  0
 11 12  1  0
 12 13  2  0
 13 14  1  0
 14 15  2  0
 15 16  1  0
 16 17  2  0
 17 18  1  0
 18 19  2  0
 19 20  1  0
  8  4  2  0
 20 12  1  0
 19 14  1  0
  3 21  1  0
  3 22  1  0
  5 23  1  0
  6 24  1  0
  8 25  1  0
  9 26  1  0
 10 27  1  0
 10 28  1  0
 11 29  1  0
 11 30  1  0
 15 31  1  0
 16 32  1  0
 17 33  1  0
 18 34  1  0
 20 35  1  0
M  END
>  <Energy>  (273) 
1681.1186701679615

>  <compound_id>  (273) 
4901

>  <target_id>  (273) 
1

>  <reference_id>  (273) 
94

>  <inspiration_ids>  (273) 
[94, 66]

>  <energy_score>  (273) 
1624.1705015678363

>  <distance_score>  (273) 
10.668277014053137

>  <path>  (273) 
/opt/xchem-fragalysis-2/maxwin/BulkDock/SCRATCH/511016/C4901-P94/C4901-P94.minimised.mol

>  <scratch_subdir>  (273) 
/opt/xchem-fragalysis-2/maxwin/BulkDock/SCRATCH/511016/C4901-P94

>  <fragmenstein_runtime>  (273) 
18.14015245437622

>  <fragmenstein_outcome>  (273) 
too moved

>  <fragmenstein_mode>  (273) 
expansion

>  <fragmenstein_error>  (273) 


$$$$
C4901-P66
     RDKit          3D

 35 37  0  0  0  0  0  0  0  0999 V2000
    1.5254  -13.8285   26.5126 O   0  0  0  0  0  0  0  0  0  0  0  0
    0.8376  -13.4461   25.6009 C   0  0  0  0  0  0  0  0  0  0  0  0
    2.0069  -12.5285   24.1973 C   0  0  0  0  0  0  0  0  0  0  0  0
    3.3576  -12.1709   22.8166 C   0  0  0  0  0  0  0  0  0  0  0  0
    4.2919  -10.6845   22.3294 C   0  0  0  0  0  0  0  0  0  0  0  0
    5.2336  -10.7195   21.2992 C   0  0  0  0  0  0  0  0  0  0  0  0
    5.1586  -12.1990   20.4075 S   0  0  0  0  0  0  0  0  0  0  0  0
    3.7539  -12.8653   21.5391 C   0  0  0  0  0  0  0  0  0  0  0  0
   -1.0751  -13.8249   25.4266 N   0  0  0  0  0  0  0  0  0  0  0  0
   -2.2683  -15.0285   26.5790 C   0  0  0  0  0  0  0  0  0  0  0  0
   -3.2110  -16.9061   27.2297 C   0  0  0  0  0  0  0  0  0  0  0  0
   -4.9627  -18.1014   27.5165 C   0  0  0  0  0  0  0  0  0  0  0  0
   -5.5292  -19.1794   26.9478 N   0  0  0  0  0  0  0  0  0  0  0  0
   -5.5561  -20.2068   26.1500 C   0  0  0  0  0  0  0  0  0  0  0  0
   -5.0888  -21.0650   25.1765 C   0  0  0  0  0  0  0  0  0  0  0  0
   -5.5640  -22.3420   25.1293 C   0  0  0  0  0  0  0  0  0  0  0  0
   -6.4583  -22.6632   26.1091 C   0  0  0  0  0  0  0  0  0  0  0  0
   -6.8538  -21.8368   27.1930 C   0  0  0  0  0  0  0  0  0  0  0  0
   -6.3955  -20.4812   27.1587 C   0  0  0  0  0  0  0  0  0  0  0  0
   -6.1010  -19.0831   28.2641 N   0  0  0  0  0  0  0  0  0  0  0  0
    2.0834  -13.5454   23.7928 H   0  0  0  0  0  0  0  0  0  0  0  0
    2.9155  -12.9830   24.6077 H   0  0  0  0  0  0  0  0  0  0  0  0
    4.0572   -9.7268   22.7582 H   0  0  0  0  0  0  0  0  0  0  0  0
    5.8705   -9.9186   20.9519 H   0  0  0  0  0  0  0  0  0  0  0  0
    3.2678  -13.6483   21.0196 H   0  0  0  0  0  0  0  0  0  0  0  0
   -1.4164  -13.3672   24.6953 H   0  0  0  0  0  0  0  0  0  0  0  0
   -2.8888  -14.1539   26.5657 H   0  0  0  0  0  0  0  0  0  0  0  0
   -1.7331  -15.0328   27.5553 H   0  0  0  0  0  0  0  0  0  0  0  0
   -3.3737  -16.4918   28.2089 H   0  0  0  0  0  0  0  0  0  0  0  0
   -2.3897  -17.6134   27.1110 H   0  0  0  0  0  0  0  0  0  0  0  0
   -4.2081  -20.9053   24.5933 H   0  0  0  0  0  0  0  0  0  0  0  0
   -5.2818  -23.0385   24.3495 H   0  0  0  0  0  0  0  0  0  0  0  0
   -7.0564  -23.4936   25.8214 H   0  0  0  0  0  0  0  0  0  0  0  0
   -7.5808  -22.2308   27.8770 H   0  0  0  0  0  0  0  0  0  0  0  0
   -6.1384  -19.2445   29.2573 H   0  0  0  0  0  0  0  0  0  0  0  0
  1  2  2  0
  2  3  1  0
  3  4  1  0
  4  5  1  0
  5  6  2  0
  6  7  1  0
  7  8  1  0
  2  9  1  0
  9 10  1  0
 10 11  1  0
 11 12  1  0
 12 13  2  0
 13 14  1  0
 14 15  2  0
 15 16  1  0
 16 17  2  0
 17 18  1  0
 18 19  2  0
 19 20  1  0
  8  4  2  0
 20 12  1  0
 19 14  1  0
  3 21  1  0
  3 22  1  0
  5 23  1  0
  6 24  1  0
  8 25  1  0
  9 26  1  0
 10 27  1  0
 10 28  1  0
 11 29  1  0
 11 30  1  0
 15 31  1  0
 16 32  1  0
 17 33  1  0
 18 34  1  0
 20 35  1  0
M  END
>  <Energy>  (274) 
1190.993129464616

>  <compound_id>  (274) 
4901

>  <target_id>  (274) 
1

>  <reference_id>  (274) 
66

>  <inspiration_ids>  (274) 
[94, 66]

>  <energy_score>  (274) 
1134.0449608644815

>  <distance_score>  (274) 
11.75315024733021

>  <path>  (274) 
/opt/xchem-fragalysis-2/maxwin/BulkDock/SCRATCH/511016/C4901-P66/C4901-P66.minimised.mol

>  <scratch_subdir>  (274) 
/opt/xchem-fragalysis-2/maxwin/BulkDock/SCRATCH/511016/C4901-P66

>  <fragmenstein_runtime>  (274) 
19.60253095626831

>  <fragmenstein_outcome>  (274) 
too moved

>  <fragmenstein_mode>  (274) 
expansion

>  <fragmenstein_error>  (274) 


$$$$
C4902-P94
     RDKit          3D

 38 40  0  0  0  0  0  0  0  0999 V2000
   -1.3305  -15.7076   33.3926 C   0  0  0  0  0  0  0  0  0  0  0  0
   -0.5586  -16.6620   32.6338 N   0  0  0  0  0  0  0  0  0  0  0  0
    0.1732  -16.4461   31.4159 C   0  0  0  0  0  0  0  0  0  0  0  0
   -0.4427  -15.2394   30.2537 C   0  0  0  0  0  0  0  0  0  0  0  0
   -0.3933  -14.9483   28.2735 C   0  0  0  0  0  0  0  0  0  0  0  0
    0.8569  -14.1592   26.7500 N   0  0  0  0  0  0  0  0  0  0  0  0
    1.3517  -12.7152   26.3965 C   0  0  0  0  0  0  0  0  0  0  0  0
    1.2083  -11.6274   26.9947 O   0  0  0  0  0  0  0  0  0  0  0  0
    2.1724  -12.9937   24.6319 C   0  0  0  0  0  0  0  0  0  0  0  0
    3.7651  -13.5520   24.0456 C   0  0  0  0  0  0  0  0  0  0  0  0
    4.8383  -14.2214   24.7613 C   0  0  0  0  0  0  0  0  0  0  0  0
    6.0453  -14.2473   24.0850 C   0  0  0  0  0  0  0  0  0  0  0  0
    5.9349  -13.5559   22.5381 S   0  0  0  0  0  0  0  0  0  0  0  0
    4.2669  -13.2644   22.7739 C   0  0  0  0  0  0  0  0  0  0  0  0
    0.8032  -17.6042   31.1687 N   0  0  0  0  0  0  0  0  0  0  0  0
    0.1373  -18.6031   31.9190 C   0  0  0  0  0  0  0  0  0  0  0  0
    0.1442  -20.0131   31.8078 C   0  0  0  0  0  0  0  0  0  0  0  0
   -0.8324  -20.7749   32.4806 C   0  0  0  0  0  0  0  0  0  0  0  0
   -1.7791  -20.1580   33.2953 C   0  0  0  0  0  0  0  0  0  0  0  0
   -1.7540  -18.7724   33.4889 C   0  0  0  0  0  0  0  0  0  0  0  0
   -0.7841  -18.0296   32.7826 C   0  0  0  0  0  0  0  0  0  0  0  0
   -2.3883  -15.8764   33.2009 H   0  0  0  0  0  0  0  0  0  0  0  0
   -1.1161  -15.8709   34.4530 H   0  0  0  0  0  0  0  0  0  0  0  0
   -1.0078  -14.7003   33.1306 H   0  0  0  0  0  0  0  0  0  0  0  0
   -0.3140  -14.3713   30.9301 H   0  0  0  0  0  0  0  0  0  0  0  0
   -1.5032  -15.3910   30.3646 H   0  0  0  0  0  0  0  0  0  0  0  0
    0.2102  -15.8841   28.5934 H   0  0  0  0  0  0  0  0  0  0  0  0
   -1.4003  -15.1671   27.8586 H   0  0  0  0  0  0  0  0  0  0  0  0
    1.2011  -14.7562   26.1357 H   0  0  0  0  0  0  0  0  0  0  0  0
    1.4833  -13.6342   24.1300 H   0  0  0  0  0  0  0  0  0  0  0  0
    2.0820  -12.0695   24.0670 H   0  0  0  0  0  0  0  0  0  0  0  0
    4.7511  -14.6015   25.7736 H   0  0  0  0  0  0  0  0  0  0  0  0
    6.9838  -14.6496   24.4406 H   0  0  0  0  0  0  0  0  0  0  0  0
    3.7593  -12.8188   21.9503 H   0  0  0  0  0  0  0  0  0  0  0  0
    0.8412  -20.5024   31.1390 H   0  0  0  0  0  0  0  0  0  0  0  0
   -0.8504  -21.8539   32.3521 H   0  0  0  0  0  0  0  0  0  0  0  0
   -2.5351  -20.7563   33.7991 H   0  0  0  0  0  0  0  0  0  0  0  0
   -2.4925  -18.2894   34.1206 H   0  0  0  0  0  0  0  0  0  0  0  0
  1  2  1  0
  2  3  1  0
  3  4  1  0
  4  5  1  0
  5  6  1  0
  6  7  1  0
  7  8  2  0
  7  9  1  0
  9 10  1  0
 10 11  1  0
 11 12  2  0
 12 13  1  0
 13 14  1  0
  3 15  2  0
 15 16  1  0
 16 17  2  0
 17 18  1  0
 18 19  2  0
 19 20  1  0
 20 21  2  0
 21  2  1  0
 14 10  2  0
 21 16  1  0
  1 22  1  0
  1 23  1  0
  1 24  1  0
  4 25  1  0
  4 26  1  0
  5 27  1  0
  5 28  1  0
  6 29  1  0
  9 30  1  0
  9 31  1  0
 11 32  1  0
 12 33  1  0
 14 34  1  0
 17 35  1  0
 18 36  1  0
 19 37  1  0
 20 38  1  0
M  END
>  <Energy>  (275) 
420.84404886957196

>  <compound_id>  (275) 
4902

>  <target_id>  (275) 
1

>  <reference_id>  (275) 
94

>  <inspiration_ids>  (275) 
[94, 66]

>  <energy_score>  (275) 
358.4760751313271

>  <distance_score>  (275) 
14.443717609678657

>  <path>  (275) 
/opt/xchem-fragalysis-2/maxwin/BulkDock/SCRATCH/511016/C4902-P94/C4902-P94.minimised.mol

>  <scratch_subdir>  (275) 
/opt/xchem-fragalysis-2/maxwin/BulkDock/SCRATCH/511016/C4902-P94

>  <fragmenstein_runtime>  (275) 
28.50588083267212

>  <fragmenstein_outcome>  (275) 
too moved

>  <fragmenstein_mode>  (275) 
expansion

>  <fragmenstein_error>  (275) 


$$$$
C4902-P66
     RDKit          3D

 38 40  0  0  0  0  0  0  0  0999 V2000
   -5.8076  -19.1751   25.5142 C   0  0  0  0  0  0  0  0  0  0  0  0
   -5.0639  -18.1909   27.2013 N   0  0  0  0  0  0  0  0  0  0  0  0
   -3.2201  -17.2864   26.7105 C   0  0  0  0  0  0  0  0  0  0  0  0
   -2.5273  -15.7363   25.2514 C   0  0  0  0  0  0  0  0  0  0  0  0
   -0.8997  -14.5714   24.1773 C   0  0  0  0  0  0  0  0  0  0  0  0
   -0.2819  -12.9100   22.9276 N   0  0  0  0  0  0  0  0  0  0  0  0
    1.1235  -11.8167   23.0193 C   0  0  0  0  0  0  0  0  0  0  0  0
    2.0937  -11.8623   23.7567 O   0  0  0  0  0  0  0  0  0  0  0  0
    0.5663  -10.4265   21.6795 C   0  0  0  0  0  0  0  0  0  0  0  0
    1.4125   -8.9954   21.0689 C   0  0  0  0  0  0  0  0  0  0  0  0
    0.8746   -8.2054   19.9757 C   0  0  0  0  0  0  0  0  0  0  0  0
    1.7238   -7.2118   19.5244 C   0  0  0  0  0  0  0  0  0  0  0  0
    3.1913   -7.1746   20.3906 S   0  0  0  0  0  0  0  0  0  0  0  0
    2.6811   -8.4835   21.3728 C   0  0  0  0  0  0  0  0  0  0  0  0
   -2.6914  -18.9519   26.3617 N   0  0  0  0  0  0  0  0  0  0  0  0
   -4.2254  -20.1226   25.9446 C   0  0  0  0  0  0  0  0  0  0  0  0
   -4.5686  -21.3783   24.9911 C   0  0  0  0  0  0  0  0  0  0  0  0
   -5.4721  -22.3868   25.3485 C   0  0  0  0  0  0  0  0  0  0  0  0
   -6.2877  -22.2147   26.4506 C   0  0  0  0  0  0  0  0  0  0  0  0
   -6.4859  -20.9495   27.0306 C   0  0  0  0  0  0  0  0  0  0  0  0
   -5.5318  -19.7738   26.8154 C   0  0  0  0  0  0  0  0  0  0  0  0
   -5.1528  -19.3736   24.6732 H   0  0  0  0  0  0  0  0  0  0  0  0
   -6.7105  -19.7447   25.5114 H   0  0  0  0  0  0  0  0  0  0  0  0
   -6.1531  -18.5743   24.5435 H   0  0  0  0  0  0  0  0  0  0  0  0
   -2.2581  -16.6911   24.9304 H   0  0  0  0  0  0  0  0  0  0  0  0
   -2.2801  -15.0808   26.1211 H   0  0  0  0  0  0  0  0  0  0  0  0
   -1.1915  -13.8367   24.9417 H   0  0  0  0  0  0  0  0  0  0  0  0
   -1.3396  -14.9270   23.2867 H   0  0  0  0  0  0  0  0  0  0  0  0
   -0.9252  -12.5244   22.2709 H   0  0  0  0  0  0  0  0  0  0  0  0
   -0.0375  -10.7006   20.8023 H   0  0  0  0  0  0  0  0  0  0  0  0
   -0.2496   -9.9182   22.2301 H   0  0  0  0  0  0  0  0  0  0  0  0
   -0.0935   -8.3929   19.5296 H   0  0  0  0  0  0  0  0  0  0  0  0
    1.5457   -6.5111   18.7216 H   0  0  0  0  0  0  0  0  0  0  0  0
    3.3837   -8.8715   22.0904 H   0  0  0  0  0  0  0  0  0  0  0  0
   -3.8635  -21.5832   24.1735 H   0  0  0  0  0  0  0  0  0  0  0  0
   -5.5166  -23.3054   24.7662 H   0  0  0  0  0  0  0  0  0  0  0  0
   -7.0365  -22.9484   26.6687 H   0  0  0  0  0  0  0  0  0  0  0  0
   -7.4065  -20.8129   27.5488 H   0  0  0  0  0  0  0  0  0  0  0  0
  1  2  1  0
  2  3  1  0
  3  4  1  0
  4  5  1  0
  5  6  1  0
  6  7  1  0
  7  8  2  0
  7  9  1  0
  9 10  1  0
 10 11  1  0
 11 12  2  0
 12 13  1  0
 13 14  1  0
  3 15  2  0
 15 16  1  0
 16 17  2  0
 17 18  1  0
 18 19  2  0
 19 20  1  0
 20 21  2  0
 21  2  1  0
 14 10  2  0
 21 16  1  0
  1 22  1  0
  1 23  1  0
  1 24  1  0
  4 25  1  0
  4 26  1  0
  5 27  1  0
  5 28  1  0
  6 29  1  0
  9 30  1  0
  9 31  1  0
 11 32  1  0
 12 33  1  0
 14 34  1  0
 17 35  1  0
 18 36  1  0
 19 37  1  0
 20 38  1  0
M  END
>  <Energy>  (276) 
1721.0086506169519

>  <compound_id>  (276) 
4902

>  <target_id>  (276) 
1

>  <reference_id>  (276) 
66

>  <inspiration_ids>  (276) 
[94, 66]

>  <energy_score>  (276) 
1658.6406768787326

>  <distance_score>  (276) 
11.608862796512007

>  <path>  (276) 
/opt/xchem-fragalysis-2/maxwin/BulkDock/SCRATCH/511016/C4902-P66/C4902-P66.minimised.mol

>  <scratch_subdir>  (276) 
/opt/xchem-fragalysis-2/maxwin/BulkDock/SCRATCH/511016/C4902-P66

>  <fragmenstein_runtime>  (276) 
16.36274003982544

>  <fragmenstein_outcome>  (276) 
too moved

>  <fragmenstein_mode>  (276) 
expansion

>  <fragmenstein_error>  (276) 


$$$$
C4895-P94
     RDKit          3D

 40 43  0  0  0  0  0  0  0  0999 V2000
   -4.6006  -16.4643   29.0984 O   0  0  0  0  0  0  0  0  0  0  0  0
   -3.5010  -16.0548   29.3461 C   0  0  0  0  0  0  0  0  0  0  0  0
   -2.2402  -15.4836   27.8072 C   0  0  0  0  0  0  0  0  0  0  0  0
   -2.1367  -14.8371   25.9877 N   0  0  0  0  0  0  0  0  0  0  0  0
   -2.7345  -15.9039   25.1674 N   0  0  0  0  0  0  0  0  0  0  0  0
   -2.8298  -15.4463   23.9950 N   0  0  0  0  0  0  0  0  0  0  0  0
   -1.5786  -15.1693   23.6416 N   0  0  0  0  0  0  0  0  0  0  0  0
   -0.9915  -14.5903   24.6215 C   0  0  0  0  0  0  0  0  0  0  0  0
    0.8990  -14.0908   24.1690 C   0  0  0  0  0  0  0  0  0  0  0  0
    1.5478  -13.3568   25.3389 C   0  0  0  0  0  0  0  0  0  0  0  0
    2.0457  -12.4674   24.4421 C   0  0  0  0  0  0  0  0  0  0  0  0
    3.0495  -12.7094   23.2488 S   0  0  0  0  0  0  0  0  0  0  0  0
    2.4780  -14.2624   23.4059 C   0  0  0  0  0  0  0  0  0  0  0  0
   -2.8143  -16.0026   30.8372 N   0  0  0  0  0  0  0  0  0  0  0  0
   -3.3851  -16.6013   32.4016 C   0  0  0  0  0  0  0  0  0  0  0  0
   -5.2791  -16.8495   32.6038 C   0  0  0  0  0  0  0  0  0  0  0  0
   -6.4747  -16.9423   33.7137 C   0  0  0  0  0  0  0  0  0  0  0  0
   -6.7205  -15.9612   34.5805 N   0  0  0  0  0  0  0  0  0  0  0  0
   -7.9696  -16.1133   35.0534 C   0  0  0  0  0  0  0  0  0  0  0  0
   -8.6915  -15.2930   35.9270 C   0  0  0  0  0  0  0  0  0  0  0  0
  -10.0376  -15.5686   36.1734 C   0  0  0  0  0  0  0  0  0  0  0  0
  -10.6525  -16.6338   35.5470 C   0  0  0  0  0  0  0  0  0  0  0  0
   -9.9178  -17.4499   34.6915 C   0  0  0  0  0  0  0  0  0  0  0  0
   -8.5529  -17.2145   34.4774 C   0  0  0  0  0  0  0  0  0  0  0  0
   -7.5225  -17.8390   33.7716 N   0  0  0  0  0  0  0  0  0  0  0  0
   -2.1381  -16.5144   27.4053 H   0  0  0  0  0  0  0  0  0  0  0  0
   -1.2843  -15.1342   28.1422 H   0  0  0  0  0  0  0  0  0  0  0  0
    1.0596  -13.1858   26.2683 H   0  0  0  0  0  0  0  0  0  0  0  0
    1.7887  -11.5644   24.7653 H   0  0  0  0  0  0  0  0  0  0  0  0
    3.1318  -15.1035   23.2607 H   0  0  0  0  0  0  0  0  0  0  0  0
   -1.8760  -15.6175   30.7529 H   0  0  0  0  0  0  0  0  0  0  0  0
   -2.8060  -17.5015   32.4379 H   0  0  0  0  0  0  0  0  0  0  0  0
   -2.9991  -15.8225   33.0483 H   0  0  0  0  0  0  0  0  0  0  0  0
   -5.8156  -16.7063   31.6747 H   0  0  0  0  0  0  0  0  0  0  0  0
   -5.2337  -15.8884   33.0142 H   0  0  0  0  0  0  0  0  0  0  0  0
   -8.2100  -14.4303   36.3734 H   0  0  0  0  0  0  0  0  0  0  0  0
  -10.6061  -14.9237   36.8374 H   0  0  0  0  0  0  0  0  0  0  0  0
  -11.7071  -16.8369   35.7091 H   0  0  0  0  0  0  0  0  0  0  0  0
  -10.4348  -18.2849   34.2310 H   0  0  0  0  0  0  0  0  0  0  0  0
   -7.5967  -18.6817   33.2083 H   0  0  0  0  0  0  0  0  0  0  0  0
  1  2  2  0
  2  3  1  0
  3  4  1  0
  4  5  1  0
  5  6  2  0
  6  7  1  0
  7  8  2  0
  8  9  1  0
  9 10  1  0
 10 11  2  0
 11 12  1  0
 12 13  1  0
  2 14  1  0
 14 15  1  0
 15 16  1  0
 16 17  1  0
 17 18  2  0
 18 19  1  0
 19 20  2  0
 20 21  1  0
 21 22  2  0
 22 23  1  0
 23 24  2  0
 24 25  1  0
  8  4  1  0
 13  9  2  0
 25 17  1  0
 24 19  1  0
  3 26  1  0
  3 27  1  0
 10 28  1  0
 11 29  1  0
 13 30  1  0
 14 31  1  0
 15 32  1  0
 15 33  1  0
 16 34  1  0
 16 35  1  0
 20 36  1  0
 21 37  1  0
 22 38  1  0
 23 39  1  0
 25 40  1  0
M  END
>  <Energy>  (277) 
641.22238569172498

>  <compound_id>  (277) 
4895

>  <target_id>  (277) 
1

>  <reference_id>  (277) 
94

>  <inspiration_ids>  (277) 
[94, 66]

>  <energy_score>  (277) 
578.5147263594905

>  <distance_score>  (277) 
13.94246756847974

>  <path>  (277) 
/opt/xchem-fragalysis-2/maxwin/BulkDock/SCRATCH/511016/C4895-P94/C4895-P94.minimised.mol

>  <scratch_subdir>  (277) 
/opt/xchem-fragalysis-2/maxwin/BulkDock/SCRATCH/511016/C4895-P94

>  <fragmenstein_runtime>  (277) 
26.997740030288696

>  <fragmenstein_outcome>  (277) 
too moved

>  <fragmenstein_mode>  (277) 
expansion

>  <fragmenstein_error>  (277) 


$$$$
C4895-P66
     RDKit          3D

 40 43  0  0  0  0  0  0  0  0999 V2000
   -0.4361  -18.1230   21.7611 O   0  0  0  0  0  0  0  0  0  0  0  0
   -0.7403  -19.1603   22.3348 C   0  0  0  0  0  0  0  0  0  0  0  0
   -0.3770  -20.5219   21.7265 C   0  0  0  0  0  0  0  0  0  0  0  0
    0.1204  -20.5757   20.2844 N   0  0  0  0  0  0  0  0  0  0  0  0
   -0.3309  -21.7605   19.7250 N   0  0  0  0  0  0  0  0  0  0  0  0
    0.6847  -22.5984   19.9426 N   0  0  0  0  0  0  0  0  0  0  0  0
    1.8478  -21.8903   20.1877 N   0  0  0  0  0  0  0  0  0  0  0  0
    1.5131  -20.6435   19.8724 C   0  0  0  0  0  0  0  0  0  0  0  0
    2.3605  -19.9454   18.6343 C   0  0  0  0  0  0  0  0  0  0  0  0
    1.8711  -19.0786   17.6061 C   0  0  0  0  0  0  0  0  0  0  0  0
    2.8714  -18.6129   16.7655 C   0  0  0  0  0  0  0  0  0  0  0  0
    4.4058  -19.2563   17.1683 S   0  0  0  0  0  0  0  0  0  0  0  0
    3.7179  -20.1831   18.4522 C   0  0  0  0  0  0  0  0  0  0  0  0
   -1.4797  -19.4253   23.9079 N   0  0  0  0  0  0  0  0  0  0  0  0
   -2.0072  -18.0947   25.5052 C   0  0  0  0  0  0  0  0  0  0  0  0
   -2.8652  -17.1926   27.2475 C   0  0  0  0  0  0  0  0  0  0  0  0
   -4.1524  -16.3535   28.6846 C   0  0  0  0  0  0  0  0  0  0  0  0
   -5.3047  -16.9474   29.6195 N   0  0  0  0  0  0  0  0  0  0  0  0
   -5.8830  -16.2604   31.1060 C   0  0  0  0  0  0  0  0  0  0  0  0
   -6.4485  -16.7392   32.4812 C   0  0  0  0  0  0  0  0  0  0  0  0
   -7.4912  -16.0086   33.2621 C   0  0  0  0  0  0  0  0  0  0  0  0
   -8.0448  -14.8090   32.6580 C   0  0  0  0  0  0  0  0  0  0  0  0
   -7.2322  -14.2227   31.3036 C   0  0  0  0  0  0  0  0  0  0  0  0
   -6.0814  -14.9855   30.5115 C   0  0  0  0  0  0  0  0  0  0  0  0
   -5.8660  -15.6942   29.1082 N   0  0  0  0  0  0  0  0  0  0  0  0
    0.4214  -20.9682   22.3294 H   0  0  0  0  0  0  0  0  0  0  0  0
   -1.2685  -21.1584   21.7712 H   0  0  0  0  0  0  0  0  0  0  0  0
    0.8276  -18.8154   17.4993 H   0  0  0  0  0  0  0  0  0  0  0  0
    2.7716  -17.9406   15.9246 H   0  0  0  0  0  0  0  0  0  0  0  0
    4.3555  -20.8228   19.0475 H   0  0  0  0  0  0  0  0  0  0  0  0
   -1.6022  -20.4170   24.0742 H   0  0  0  0  0  0  0  0  0  0  0  0
   -2.4716  -17.2222   25.0892 H   0  0  0  0  0  0  0  0  0  0  0  0
   -2.3268  -19.0030   26.0178 H   0  0  0  0  0  0  0  0  0  0  0  0
   -2.4094  -16.1972   27.1305 H   0  0  0  0  0  0  0  0  0  0  0  0
   -1.9370  -17.3744   27.7473 H   0  0  0  0  0  0  0  0  0  0  0  0
   -6.3568  -17.7956   32.7062 H   0  0  0  0  0  0  0  0  0  0  0  0
   -7.9137  -16.4428   34.1617 H   0  0  0  0  0  0  0  0  0  0  0  0
   -8.7524  -14.1837   33.1945 H   0  0  0  0  0  0  0  0  0  0  0  0
   -6.9851  -13.1676   31.3456 H   0  0  0  0  0  0  0  0  0  0  0  0
   -6.3629  -15.1067   28.4874 H   0  0  0  0  0  0  0  0  0  0  0  0
  1  2  2  0
  2  3  1  0
  3  4  1  0
  4  5  1  0
  5  6  2  0
  6  7  1  0
  7  8  2  0
  8  9  1  0
  9 10  1  0
 10 11  2  0
 11 12  1  0
 12 13  1  0
  2 14  1  0
 14 15  1  0
 15 16  1  0
 16 17  1  0
 17 18  2  0
 18 19  1  0
 19 20  2  0
 20 21  1  0
 21 22  2  0
 22 23  1  0
 23 24  2  0
 24 25  1  0
  8  4  1  0
 13  9  2  0
 25 17  1  0
 24 19  1  0
  3 26  1  0
  3 27  1  0
 10 28  1  0
 11 29  1  0
 13 30  1  0
 14 31  1  0
 15 32  1  0
 15 33  1  0
 16 34  1  0
 16 35  1  0
 20 36  1  0
 21 37  1  0
 22 38  1  0
 23 39  1  0
 25 40  1  0
M  END
>  <Energy>  (278) 
993.91287635427113

>  <compound_id>  (278) 
4895

>  <target_id>  (278) 
1

>  <reference_id>  (278) 
66

>  <inspiration_ids>  (278) 
[94, 66]

>  <energy_score>  (278) 
931.2052170220171

>  <distance_score>  (278) 
15.650500720869557

>  <path>  (278) 
/opt/xchem-fragalysis-2/maxwin/BulkDock/SCRATCH/511016/C4895-P66/C4895-P66.minimised.mol

>  <scratch_subdir>  (278) 
/opt/xchem-fragalysis-2/maxwin/BulkDock/SCRATCH/511016/C4895-P66

>  <fragmenstein_runtime>  (278) 
35.34454798698425

>  <fragmenstein_outcome>  (278) 
too moved

>  <fragmenstein_mode>  (278) 
expansion

>  <fragmenstein_error>  (278) 


$$$$
C4903-P94
     RDKit          3D

 41 44  0  0  0  0  0  0  0  0999 V2000
   -2.1987  -14.3783   25.2272 O   0  0  0  0  0  0  0  0  0  0  0  0
   -1.3968  -14.2881   26.0436 C   0  0  0  0  0  0  0  0  0  0  0  0
    0.7102  -13.5357   25.7609 C   0  0  0  0  0  0  0  0  0  0  0  0
    2.3058  -13.0386   24.4166 C   0  0  0  0  0  0  0  0  0  0  0  0
    3.9245  -13.4301   24.6003 C   0  0  0  0  0  0  0  0  0  0  0  0
    5.7664  -11.8927   24.4712 S   0  0  0  0  0  0  0  0  0  0  0  0
    4.4675  -11.2605   22.6384 C   0  0  0  0  0  0  0  0  0  0  0  0
    6.0872  -10.8705   21.6318 C   0  0  0  0  0  0  0  0  0  0  0  0
    6.6200  -11.4699   20.4331 C   0  0  0  0  0  0  0  0  0  0  0  0
    7.7805  -10.8491   20.0062 C   0  0  0  0  0  0  0  0  0  0  0  0
    8.3092   -9.6357   21.0910 S   0  0  0  0  0  0  0  0  0  0  0  0
    6.9858   -9.9309   22.1467 C   0  0  0  0  0  0  0  0  0  0  0  0
    3.0054  -12.0527   22.9770 N   0  0  0  0  0  0  0  0  0  0  0  0
   -1.7934  -14.9645   27.7849 N   0  0  0  0  0  0  0  0  0  0  0  0
   -3.3583  -15.9687   28.4953 C   0  0  0  0  0  0  0  0  0  0  0  0
   -5.0059  -16.1869   29.8099 C   0  0  0  0  0  0  0  0  0  0  0  0
   -5.6218  -16.6285   31.7104 C   0  0  0  0  0  0  0  0  0  0  0  0
   -4.7829  -16.5732   32.8094 N   0  0  0  0  0  0  0  0  0  0  0  0
   -5.1189  -17.4306   33.8095 C   0  0  0  0  0  0  0  0  0  0  0  0
   -4.4539  -17.7557   34.9963 C   0  0  0  0  0  0  0  0  0  0  0  0
   -4.9244  -18.8291   35.7622 C   0  0  0  0  0  0  0  0  0  0  0  0
   -6.0405  -19.5461   35.3579 C   0  0  0  0  0  0  0  0  0  0  0  0
   -6.7201  -19.1897   34.1959 C   0  0  0  0  0  0  0  0  0  0  0  0
   -6.2310  -18.1189   33.4435 C   0  0  0  0  0  0  0  0  0  0  0  0
   -6.5290  -17.6250   32.1854 N   0  0  0  0  0  0  0  0  0  0  0  0
    1.3479  -14.0763   26.4543 H   0  0  0  0  0  0  0  0  0  0  0  0
    0.9431  -12.5762   26.2138 H   0  0  0  0  0  0  0  0  0  0  0  0
    4.3200  -14.1437   25.3331 H   0  0  0  0  0  0  0  0  0  0  0  0
    6.1683  -12.2970   19.8984 H   0  0  0  0  0  0  0  0  0  0  0  0
    8.3610  -11.0723   19.1203 H   0  0  0  0  0  0  0  0  0  0  0  0
    6.8841   -9.3429   23.0482 H   0  0  0  0  0  0  0  0  0  0  0  0
   -0.9691  -14.8883   28.3624 H   0  0  0  0  0  0  0  0  0  0  0  0
   -3.0072  -15.4611   29.4573 H   0  0  0  0  0  0  0  0  0  0  0  0
   -3.1593  -16.8624   27.9022 H   0  0  0  0  0  0  0  0  0  0  0  0
   -5.4666  -17.0208   29.2845 H   0  0  0  0  0  0  0  0  0  0  0  0
   -5.7015  -15.3092   29.7676 H   0  0  0  0  0  0  0  0  0  0  0  0
   -3.5614  -17.2114   35.2820 H   0  0  0  0  0  0  0  0  0  0  0  0
   -4.4001  -19.1086   36.6719 H   0  0  0  0  0  0  0  0  0  0  0  0
   -6.3809  -20.3963   35.9436 H   0  0  0  0  0  0  0  0  0  0  0  0
   -7.5576  -19.7824   33.8665 H   0  0  0  0  0  0  0  0  0  0  0  0
   -7.0736  -18.1883   31.5618 H   0  0  0  0  0  0  0  0  0  0  0  0
  1  2  2  0
  2  3  1  0
  3  4  1  0
  4  5  2  0
  5  6  1  0
  6  7  1  0
  7  8  1  0
  8  9  1  0
  9 10  2  0
 10 11  1  0
 11 12  1  0
  7 13  2  0
  2 14  1  0
 14 15  1  0
 15 16  1  0
 16 17  1  0
 17 18  2  0
 18 19  1  0
 19 20  2  0
 20 21  1  0
 21 22  2  0
 22 23  1  0
 23 24  2  0
 24 25  1  0
 13  4  1  0
 25 17  1  0
 12  8  2  0
 24 19  1  0
  3 26  1  0
  3 27  1  0
  5 28  1  0
  9 29  1  0
 10 30  1  0
 12 31  1  0
 14 32  1  0
 15 33  1  0
 15 34  1  0
 16 35  1  0
 16 36  1  0
 20 37  1  0
 21 38  1  0
 22 39  1  0
 23 40  1  0
 25 41  1  0
M  END
>  <Energy>  (279) 
1217.7844064160242

>  <compound_id>  (279) 
4903

>  <target_id>  (279) 
1

>  <reference_id>  (279) 
94

>  <inspiration_ids>  (279) 
[94, 66]

>  <energy_score>  (279) 
1091.2094749154412

>  <distance_score>  (279) 
10.702021341549466

>  <path>  (279) 
/opt/xchem-fragalysis-2/maxwin/BulkDock/SCRATCH/511016/C4903-P94/C4903-P94.minimised.mol

>  <scratch_subdir>  (279) 
/opt/xchem-fragalysis-2/maxwin/BulkDock/SCRATCH/511016/C4903-P94

>  <fragmenstein_runtime>  (279) 
37.789387941360474

>  <fragmenstein_outcome>  (279) 
too moved

>  <fragmenstein_mode>  (279) 
expansion

>  <fragmenstein_error>  (279) 


$$$$
C4903-P66
     RDKit          3D

 41 44  0  0  0  0  0  0  0  0999 V2000
   -3.5372  -12.6632   25.5065 O   0  0  0  0  0  0  0  0  0  0  0  0
   -2.8003  -12.8420   26.4074 C   0  0  0  0  0  0  0  0  0  0  0  0
   -1.8026  -10.8429   26.9287 C   0  0  0  0  0  0  0  0  0  0  0  0
   -0.8821   -8.8971   26.5117 C   0  0  0  0  0  0  0  0  0  0  0  0
   -0.5379   -7.6085   26.9949 C   0  0  0  0  0  0  0  0  0  0  0  0
   -0.4004   -6.2006   25.3599 S   0  0  0  0  0  0  0  0  0  0  0  0
    0.9291   -7.4131   24.0099 C   0  0  0  0  0  0  0  0  0  0  0  0
    3.1388   -7.0300   24.2804 C   0  0  0  0  0  0  0  0  0  0  0  0
    3.9614   -5.8769   25.2409 C   0  0  0  0  0  0  0  0  0  0  0  0
    5.3324   -5.8798   25.4367 C   0  0  0  0  0  0  0  0  0  0  0  0
    6.0774   -7.1052   24.5821 S   0  0  0  0  0  0  0  0  0  0  0  0
    4.6144   -7.4773   23.7512 C   0  0  0  0  0  0  0  0  0  0  0  0
   -0.2319   -8.1322   24.9107 N   0  0  0  0  0  0  0  0  0  0  0  0
   -2.5348  -14.5251   27.6657 N   0  0  0  0  0  0  0  0  0  0  0  0
   -3.6696  -16.3497   27.9371 C   0  0  0  0  0  0  0  0  0  0  0  0
   -5.4787  -17.0018   29.1840 C   0  0  0  0  0  0  0  0  0  0  0  0
   -6.8831  -18.4407   30.1101 C   0  0  0  0  0  0  0  0  0  0  0  0
   -6.4581  -19.8472   31.2193 N   0  0  0  0  0  0  0  0  0  0  0  0
   -8.0637  -21.0484   31.8172 C   0  0  0  0  0  0  0  0  0  0  0  0
   -8.4938  -21.7881   33.0970 C   0  0  0  0  0  0  0  0  0  0  0  0
   -9.9861  -22.4632   32.8331 C   0  0  0  0  0  0  0  0  0  0  0  0
  -11.0129  -22.1623   31.7690 C   0  0  0  0  0  0  0  0  0  0  0  0
  -10.8891  -21.3056   30.5908 C   0  0  0  0  0  0  0  0  0  0  0  0
   -9.5940  -20.6833   30.4022 C   0  0  0  0  0  0  0  0  0  0  0  0
   -8.2988  -19.4516   29.1230 N   0  0  0  0  0  0  0  0  0  0  0  0
   -0.9163  -10.6572   27.7210 H   0  0  0  0  0  0  0  0  0  0  0  0
   -2.2636  -10.7203   27.9321 H   0  0  0  0  0  0  0  0  0  0  0  0
   -0.7304   -7.0652   27.9051 H   0  0  0  0  0  0  0  0  0  0  0  0
    3.3594   -5.0271   25.5932 H   0  0  0  0  0  0  0  0  0  0  0  0
    5.9074   -5.1788   26.0259 H   0  0  0  0  0  0  0  0  0  0  0  0
    4.8152   -8.1975   22.9839 H   0  0  0  0  0  0  0  0  0  0  0  0
   -1.8636  -14.3582   28.4277 H   0  0  0  0  0  0  0  0  0  0  0  0
   -2.9624  -17.1264   27.6297 H   0  0  0  0  0  0  0  0  0  0  0  0
   -3.5378  -16.0689   28.9643 H   0  0  0  0  0  0  0  0  0  0  0  0
   -6.2714  -16.2962   28.7845 H   0  0  0  0  0  0  0  0  0  0  0  0
   -5.3351  -16.2916   30.0099 H   0  0  0  0  0  0  0  0  0  0  0  0
   -7.8638  -21.9531   33.9454 H   0  0  0  0  0  0  0  0  0  0  0  0
  -10.2932  -23.2477   33.5268 H   0  0  0  0  0  0  0  0  0  0  0  0
  -11.9539  -22.7187   31.8653 H   0  0  0  0  0  0  0  0  0  0  0  0
  -11.6700  -21.2502   29.8412 H   0  0  0  0  0  0  0  0  0  0  0  0
   -8.6128  -18.9132   28.3251 H   0  0  0  0  0  0  0  0  0  0  0  0
  1  2  2  0
  2  3  1  0
  3  4  1  0
  4  5  2  0
  5  6  1  0
  6  7  1  0
  7  8  1  0
  8  9  1  0
  9 10  2  0
 10 11  1  0
 11 12  1  0
  7 13  2  0
  2 14  1  0
 14 15  1  0
 15 16  1  0
 16 17  1  0
 17 18  2  0
 18 19  1  0
 19 20  2  0
 20 21  1  0
 21 22  2  0
 22 23  1  0
 23 24  2  0
 24 25  1  0
 13  4  1  0
 25 17  1  0
 12  8  2  0
 24 19  1  0
  3 26  1  0
  3 27  1  0
  5 28  1  0
  9 29  1  0
 10 30  1  0
 12 31  1  0
 14 32  1  0
 15 33  1  0
 15 34  1  0
 16 35  1  0
 16 36  1  0
 20 37  1  0
 21 38  1  0
 22 39  1  0
 23 40  1  0
 25 41  1  0
M  END
>  <Energy>  (280) 
2681.0145620981461

>  <compound_id>  (280) 
4903

>  <target_id>  (280) 
1

>  <reference_id>  (280) 
66

>  <inspiration_ids>  (280) 
[94, 66]

>  <energy_score>  (280) 
2554.439630597556

>  <distance_score>  (280) 
9.741147203765838

>  <path>  (280) 
/opt/xchem-fragalysis-2/maxwin/BulkDock/SCRATCH/511016/C4903-P66/C4903-P66.minimised.mol

>  <scratch_subdir>  (280) 
/opt/xchem-fragalysis-2/maxwin/BulkDock/SCRATCH/511016/C4903-P66

>  <fragmenstein_runtime>  (280) 
30.729252815246582

>  <fragmenstein_outcome>  (280) 
too moved

>  <fragmenstein_mode>  (280) 
expansion

>  <fragmenstein_error>  (280) 


$$$$
C4904-P94
     RDKit          3D

 39 41  0  0  0  0  0  0  0  0999 V2000
   -2.3051  -17.5505   16.2051 C   0  0  0  0  0  0  0  0  0  0  0  0
   -2.6247  -16.7850   17.4883 C   0  0  0  0  0  0  0  0  0  0  0  0
   -1.3070  -15.9591   17.9559 C   0  0  0  0  0  0  0  0  0  0  0  0
   -0.5165  -14.9445   17.0597 C   0  0  0  0  0  0  0  0  0  0  0  0
   -0.9341  -13.6124   16.6791 C   0  0  0  0  0  0  0  0  0  0  0  0
    0.0738  -12.8454   16.1196 C   0  0  0  0  0  0  0  0  0  0  0  0
    1.5463  -13.7002   16.0163 S   0  0  0  0  0  0  0  0  0  0  0  0
    0.8234  -15.1007   16.7017 C   0  0  0  0  0  0  0  0  0  0  0  0
   -3.1755  -17.7746   18.5423 N   0  0  0  0  0  0  0  0  0  0  0  0
   -4.5945  -18.2980   18.3567 C   0  0  0  0  0  0  0  0  0  0  0  0
   -5.1778  -19.4225   19.3425 C   0  0  0  0  0  0  0  0  0  0  0  0
   -4.7072  -20.6663   19.4415 N   0  0  0  0  0  0  0  0  0  0  0  0
   -5.5567  -21.3805   20.2760 C   0  0  0  0  0  0  0  0  0  0  0  0
   -5.4504  -22.6870   20.7876 C   0  0  0  0  0  0  0  0  0  0  0  0
   -6.4432  -23.1730   21.6492 C   0  0  0  0  0  0  0  0  0  0  0  0
   -7.5570  -22.3954   21.9597 C   0  0  0  0  0  0  0  0  0  0  0  0
   -7.6846  -21.0938   21.4586 C   0  0  0  0  0  0  0  0  0  0  0  0
   -6.6440  -20.6072   20.6468 C   0  0  0  0  0  0  0  0  0  0  0  0
   -6.3478  -19.3529   20.1261 N   0  0  0  0  0  0  0  0  0  0  0  0
   -7.1163  -18.1986   20.5264 C   0  0  0  0  0  0  0  0  0  0  0  0
   -1.5364  -18.3111   16.3796 H   0  0  0  0  0  0  0  0  0  0  0  0
   -1.9382  -16.8725   15.4275 H   0  0  0  0  0  0  0  0  0  0  0  0
   -3.1910  -18.0488   15.7999 H   0  0  0  0  0  0  0  0  0  0  0  0
   -3.4078  -16.0448   17.2860 H   0  0  0  0  0  0  0  0  0  0  0  0
   -0.5805  -16.7002   18.3180 H   0  0  0  0  0  0  0  0  0  0  0  0
   -1.6431  -15.4071   18.8394 H   0  0  0  0  0  0  0  0  0  0  0  0
   -1.9239  -13.2161   16.8709 H   0  0  0  0  0  0  0  0  0  0  0  0
    0.0139  -11.8192   15.7845 H   0  0  0  0  0  0  0  0  0  0  0  0
    1.4446  -15.9687   16.8789 H   0  0  0  0  0  0  0  0  0  0  0  0
   -3.0940  -17.3585   19.4668 H   0  0  0  0  0  0  0  0  0  0  0  0
   -5.2866  -17.4520   18.3549 H   0  0  0  0  0  0  0  0  0  0  0  0
   -4.6507  -18.7590   17.3639 H   0  0  0  0  0  0  0  0  0  0  0  0
   -4.5849  -23.2875   20.5325 H   0  0  0  0  0  0  0  0  0  0  0  0
   -6.3266  -24.1671   22.0675 H   0  0  0  0  0  0  0  0  0  0  0  0
   -8.3254  -22.7981   22.6134 H   0  0  0  0  0  0  0  0  0  0  0  0
   -8.5346  -20.4745   21.7156 H   0  0  0  0  0  0  0  0  0  0  0  0
   -8.1220  -18.2947   20.1090 H   0  0  0  0  0  0  0  0  0  0  0  0
   -6.6485  -17.2975   20.1357 H   0  0  0  0  0  0  0  0  0  0  0  0
   -7.1551  -18.1614   21.6175 H   0  0  0  0  0  0  0  0  0  0  0  0
  1  2  1  0
  2  3  1  0
  3  4  1  0
  4  5  1  0
  5  6  2  0
  6  7  1  0
  7  8  1  0
  2  9  1  0
  9 10  1  0
 10 11  1  0
 11 12  2  0
 12 13  1  0
 13 14  2  0
 14 15  1  0
 15 16  2  0
 16 17  1  0
 17 18  2  0
 18 19  1  0
 19 20  1  0
  8  4  2  0
 19 11  1  0
 18 13  1  0
  1 21  1  0
  1 22  1  0
  1 23  1  0
  2 24  1  0
  3 25  1  0
  3 26  1  0
  5 27  1  0
  6 28  1  0
  8 29  1  0
  9 30  1  0
 10 31  1  0
 10 32  1  0
 14 33  1  0
 15 34  1  0
 16 35  1  0
 17 36  1  0
 20 37  1  0
 20 38  1  0
 20 39  1  0
M  END
>  <Energy>  (281) 
69.425708232193159

>  <compound_id>  (281) 
4904

>  <target_id>  (281) 
1

>  <reference_id>  (281) 
94

>  <inspiration_ids>  (281) 
[94, 66]

>  <energy_score>  (281) 
-10.289673684353716

>  <distance_score>  (281) 
15.224111504506471

>  <path>  (281) 
/opt/xchem-fragalysis-2/maxwin/BulkDock/SCRATCH/511016/C4904-P94/C4904-P94.minimised.mol

>  <scratch_subdir>  (281) 
/opt/xchem-fragalysis-2/maxwin/BulkDock/SCRATCH/511016/C4904-P94

>  <fragmenstein_runtime>  (281) 
16.898216724395752

>  <fragmenstein_outcome>  (281) 
too moved

>  <fragmenstein_mode>  (281) 
expansion

>  <fragmenstein_error>  (281) 


$$$$
C4904-P66
     RDKit          3D

 39 41  0  0  0  0  0  0  0  0999 V2000
    5.3175  -17.8060   25.9349 C   0  0  0  0  0  0  0  0  0  0  0  0
    4.9740  -16.9802   27.1765 C   0  0  0  0  0  0  0  0  0  0  0  0
    5.1959  -15.3559   26.8784 C   0  0  0  0  0  0  0  0  0  0  0  0
    6.0764  -14.7499   25.7350 C   0  0  0  0  0  0  0  0  0  0  0  0
    5.6038  -14.3647   24.4172 C   0  0  0  0  0  0  0  0  0  0  0  0
    6.5296  -13.6688   23.6620 C   0  0  0  0  0  0  0  0  0  0  0  0
    7.9920  -13.4452   24.5092 S   0  0  0  0  0  0  0  0  0  0  0  0
    7.3820  -14.2905   25.8790 C   0  0  0  0  0  0  0  0  0  0  0  0
    3.5861  -17.4717   27.7698 N   0  0  0  0  0  0  0  0  0  0  0  0
    3.6402  -18.7657   28.5933 C   0  0  0  0  0  0  0  0  0  0  0  0
    2.3361  -19.4823   29.2750 C   0  0  0  0  0  0  0  0  0  0  0  0
    2.3740  -20.2357   30.3792 N   0  0  0  0  0  0  0  0  0  0  0  0
    1.1665  -20.9235   30.4804 C   0  0  0  0  0  0  0  0  0  0  0  0
    0.7126  -21.8644   31.4311 C   0  0  0  0  0  0  0  0  0  0  0  0
   -0.5492  -22.4723   31.2884 C   0  0  0  0  0  0  0  0  0  0  0  0
   -1.3570  -22.1661   30.2031 C   0  0  0  0  0  0  0  0  0  0  0  0
   -0.9226  -21.2382   29.2501 C   0  0  0  0  0  0  0  0  0  0  0  0
    0.3364  -20.6022   29.4200 C   0  0  0  0  0  0  0  0  0  0  0  0
    1.0497  -19.6111   28.7557 N   0  0  0  0  0  0  0  0  0  0  0  0
    0.5861  -18.8135   27.6699 C   0  0  0  0  0  0  0  0  0  0  0  0
    5.2890  -18.8791   26.1476 H   0  0  0  0  0  0  0  0  0  0  0  0
    6.3315  -17.5814   25.5883 H   0  0  0  0  0  0  0  0  0  0  0  0
    4.6265  -17.6115   25.1114 H   0  0  0  0  0  0  0  0  0  0  0  0
    5.7148  -17.2172   27.9515 H   0  0  0  0  0  0  0  0  0  0  0  0
    4.2209  -14.8850   26.7907 H   0  0  0  0  0  0  0  0  0  0  0  0
    5.5925  -14.9494   27.8208 H   0  0  0  0  0  0  0  0  0  0  0  0
    4.6012  -14.5615   24.0567 H   0  0  0  0  0  0  0  0  0  0  0  0
    6.4040  -13.2761   22.6624 H   0  0  0  0  0  0  0  0  0  0  0  0
    8.0091  -14.3763   26.7560 H   0  0  0  0  0  0  0  0  0  0  0  0
    3.0101  -17.6746   26.9550 H   0  0  0  0  0  0  0  0  0  0  0  0
    4.0821  -19.5492   27.9671 H   0  0  0  0  0  0  0  0  0  0  0  0
    4.3222  -18.5795   29.4320 H   0  0  0  0  0  0  0  0  0  0  0  0
    1.3529  -22.1155   32.2707 H   0  0  0  0  0  0  0  0  0  0  0  0
   -0.8859  -23.1847   32.0373 H   0  0  0  0  0  0  0  0  0  0  0  0
   -2.3368  -22.6257   30.1044 H   0  0  0  0  0  0  0  0  0  0  0  0
   -1.5984  -20.9765   28.4428 H   0  0  0  0  0  0  0  0  0  0  0  0
   -0.4696  -18.9345   27.4778 H   0  0  0  0  0  0  0  0  0  0  0  0
    1.1653  -19.1213   26.7975 H   0  0  0  0  0  0  0  0  0  0  0  0
    0.8033  -17.7743   27.9090 H   0  0  0  0  0  0  0  0  0  0  0  0
  1  2  1  0
  2  3  1  0
  3  4  1  0
  4  5  1  0
  5  6  2  0
  6  7  1  0
  7  8  1  0
  2  9  1  0
  9 10  1  0
 10 11  1  0
 11 12  2  0
 12 13  1  0
 13 14  2  0
 14 15  1  0
 15 16  2  0
 16 17  1  0
 17 18  2  0
 18 19  1  0
 19 20  1  0
  8  4  2  0
 19 11  1  0
 18 13  1  0
  1 21  1  0
  1 22  1  0
  1 23  1  0
  2 24  1  0
  3 25  1  0
  3 26  1  0
  5 27  1  0
  6 28  1  0
  8 29  1  0
  9 30  1  0
 10 31  1  0
 10 32  1  0
 14 33  1  0
 15 34  1  0
 16 35  1  0
 17 36  1  0
 20 37  1  0
 20 38  1  0
 20 39  1  0
M  END
>  <Energy>  (282) 
81.783787081782975

>  <compound_id>  (282) 
4904

>  <target_id>  (282) 
1

>  <reference_id>  (282) 
66

>  <inspiration_ids>  (282) 
[94, 66]

>  <energy_score>  (282) 
2.0684051652364133

>  <distance_score>  (282) 
14.890206655415055

>  <path>  (282) 
/opt/xchem-fragalysis-2/maxwin/BulkDock/SCRATCH/511016/C4904-P66/C4904-P66.minimised.mol

>  <scratch_subdir>  (282) 
/opt/xchem-fragalysis-2/maxwin/BulkDock/SCRATCH/511016/C4904-P66

>  <fragmenstein_runtime>  (282) 
21.969739198684692

>  <fragmenstein_outcome>  (282) 
too moved

>  <fragmenstein_mode>  (282) 
expansion

>  <fragmenstein_error>  (282) 


$$$$
C4905-P94
     RDKit          3D

 37 40  0  0  0  0  0  0  0  0999 V2000
   -3.5603  -22.3717   23.6779 C   0  0  0  0  0  0  0  0  0  0  0  0
   -4.4679  -22.4907   24.7054 C   0  0  0  0  0  0  0  0  0  0  0  0
   -4.3934  -21.5820   25.7509 C   0  0  0  0  0  0  0  0  0  0  0  0
   -3.4034  -20.4829   25.7003 C   0  0  0  0  0  0  0  0  0  0  0  0
   -2.1156  -19.7509   26.6716 N   0  0  0  0  0  0  0  0  0  0  0  0
   -1.3415  -18.6006   26.3424 C   0  0  0  0  0  0  0  0  0  0  0  0
    0.1512  -18.5605   26.3154 N   0  0  0  0  0  0  0  0  0  0  0  0
    1.4448  -17.4444   27.1169 C   0  0  0  0  0  0  0  0  0  0  0  0
    3.2099  -17.2887   26.3825 C   0  0  0  0  0  0  0  0  0  0  0  0
    4.1334  -17.0879   24.5799 C   0  0  0  0  0  0  0  0  0  0  0  0
    6.2056  -16.8912   24.2921 C   0  0  0  0  0  0  0  0  0  0  0  0
    7.1589  -17.6984   23.1442 C   0  0  0  0  0  0  0  0  0  0  0  0
    8.5072  -17.4497   23.0406 C   0  0  0  0  0  0  0  0  0  0  0  0
    9.0888  -16.7067   24.4213 S   0  0  0  0  0  0  0  0  0  0  0  0
    7.4837  -16.5543   25.0831 C   0  0  0  0  0  0  0  0  0  0  0  0
    2.9863  -18.6348   24.4869 C   0  0  0  0  0  0  0  0  0  0  0  0
    1.0506  -18.8308   24.6845 C   0  0  0  0  0  0  0  0  0  0  0  0
   -1.9924  -18.7150   25.2508 N   0  0  0  0  0  0  0  0  0  0  0  0
   -2.6190  -20.3304   24.7147 C   0  0  0  0  0  0  0  0  0  0  0  0
   -2.6563  -21.2871   23.6581 C   0  0  0  0  0  0  0  0  0  0  0  0
   -3.5851  -23.0612   22.8381 H   0  0  0  0  0  0  0  0  0  0  0  0
   -5.2058  -23.2867   24.7110 H   0  0  0  0  0  0  0  0  0  0  0  0
   -5.0842  -21.7161   26.5801 H   0  0  0  0  0  0  0  0  0  0  0  0
   -1.6017  -20.3898   27.2421 H   0  0  0  0  0  0  0  0  0  0  0  0
    1.2371  -17.1182   28.1401 H   0  0  0  0  0  0  0  0  0  0  0  0
    1.8367  -18.3471   27.1259 H   0  0  0  0  0  0  0  0  0  0  0  0
    3.6541  -16.6123   27.1330 H   0  0  0  0  0  0  0  0  0  0  0  0
    3.4089  -18.3096   26.6397 H   0  0  0  0  0  0  0  0  0  0  0  0
    3.9491  -16.2884   23.7675 H   0  0  0  0  0  0  0  0  0  0  0  0
    6.7370  -18.3825   22.4059 H   0  0  0  0  0  0  0  0  0  0  0  0
    9.1836  -17.8116   22.2790 H   0  0  0  0  0  0  0  0  0  0  0  0
    7.5828  -16.0576   26.0237 H   0  0  0  0  0  0  0  0  0  0  0  0
    3.2105  -19.2079   23.5630 H   0  0  0  0  0  0  0  0  0  0  0  0
    3.4780  -19.3682   25.1454 H   0  0  0  0  0  0  0  0  0  0  0  0
    0.3617  -19.0573   23.8577 H   0  0  0  0  0  0  0  0  0  0  0  0
    1.0930  -19.8097   24.5425 H   0  0  0  0  0  0  0  0  0  0  0  0
   -2.0445  -21.1743   22.7941 H   0  0  0  0  0  0  0  0  0  0  0  0
  1  2  2  0
  2  3  1  0
  3  4  2  0
  4  5  1  0
  5  6  1  0
  6  7  1  0
  7  8  1  0
  8  9  1  0
  9 10  1  0
 10 11  1  0
 11 12  1  0
 12 13  2  0
 13 14  1  0
 14 15  1  0
 10 16  1  0
 16 17  1  0
  6 18  2  0
 18 19  1  0
 19 20  2  0
 20  1  1  0
 19  4  1  0
 17  7  1  0
 15 11  2  0
  1 21  1  0
  2 22  1  0
  3 23  1  0
  5 24  1  0
  8 25  1  0
  8 26  1  0
  9 27  1  0
  9 28  1  0
 10 29  1  0
 12 30  1  0
 13 31  1  0
 15 32  1  0
 16 33  1  0
 16 34  1  0
 17 35  1  0
 17 36  1  0
 20 37  1  0
M  END
>  <Energy>  (283) 
801.88681444548081

>  <compound_id>  (283) 
4905

>  <target_id>  (283) 
1

>  <reference_id>  (283) 
94

>  <inspiration_ids>  (283) 
[94, 66]

>  <energy_score>  (283) 
766.2410572700006

>  <distance_score>  (283) 
14.688927587245763

>  <path>  (283) 
/opt/xchem-fragalysis-2/maxwin/BulkDock/SCRATCH/511016/C4905-P94/C4905-P94.minimised.mol

>  <scratch_subdir>  (283) 
/opt/xchem-fragalysis-2/maxwin/BulkDock/SCRATCH/511016/C4905-P94

>  <fragmenstein_runtime>  (283) 
26.764158010482788

>  <fragmenstein_outcome>  (283) 
too moved

>  <fragmenstein_mode>  (283) 
expansion

>  <fragmenstein_error>  (283) 


$$$$
C4905-P66
     RDKit          3D

 37 40  0  0  0  0  0  0  0  0999 V2000
   -2.6997  -24.3663   24.2860 C   0  0  0  0  0  0  0  0  0  0  0  0
   -1.8814  -24.8681   25.2982 C   0  0  0  0  0  0  0  0  0  0  0  0
   -0.4859  -24.9276   25.1458 C   0  0  0  0  0  0  0  0  0  0  0  0
    0.0550  -24.4388   23.9451 C   0  0  0  0  0  0  0  0  0  0  0  0
    1.3487  -24.2976   23.4609 N   0  0  0  0  0  0  0  0  0  0  0  0
    1.3361  -23.6041   22.2484 C   0  0  0  0  0  0  0  0  0  0  0  0
    2.4780  -23.0342   21.6478 N   0  0  0  0  0  0  0  0  0  0  0  0
    3.8208  -22.9665   22.2507 C   0  0  0  0  0  0  0  0  0  0  0  0
    4.8713  -22.1036   21.4534 C   0  0  0  0  0  0  0  0  0  0  0  0
    4.3034  -20.8082   20.8231 C   0  0  0  0  0  0  0  0  0  0  0  0
    5.3809  -19.8069   20.1875 C   0  0  0  0  0  0  0  0  0  0  0  0
    5.4595  -19.3284   18.8172 C   0  0  0  0  0  0  0  0  0  0  0  0
    6.4229  -18.3577   18.6014 C   0  0  0  0  0  0  0  0  0  0  0  0
    7.3292  -18.0455   20.0088 S   0  0  0  0  0  0  0  0  0  0  0  0
    6.3879  -19.1689   20.9114 C   0  0  0  0  0  0  0  0  0  0  0  0
    3.1376  -21.2611   19.9021 C   0  0  0  0  0  0  0  0  0  0  0  0
    2.4567  -22.6423   20.2233 C   0  0  0  0  0  0  0  0  0  0  0  0
    0.0683  -23.5246   21.8662 N   0  0  0  0  0  0  0  0  0  0  0  0
   -0.7325  -23.9413   22.9201 C   0  0  0  0  0  0  0  0  0  0  0  0
   -2.1338  -23.9091   23.0862 C   0  0  0  0  0  0  0  0  0  0  0  0
   -3.7781  -24.3199   24.4185 H   0  0  0  0  0  0  0  0  0  0  0  0
   -2.3230  -25.2104   26.2285 H   0  0  0  0  0  0  0  0  0  0  0  0
    0.1474  -25.3251   25.9315 H   0  0  0  0  0  0  0  0  0  0  0  0
    2.1894  -24.5382   23.9569 H   0  0  0  0  0  0  0  0  0  0  0  0
    3.7563  -22.5596   23.2612 H   0  0  0  0  0  0  0  0  0  0  0  0
    4.2214  -23.9829   22.3483 H   0  0  0  0  0  0  0  0  0  0  0  0
    5.3010  -22.7249   20.6559 H   0  0  0  0  0  0  0  0  0  0  0  0
    5.7019  -21.8662   22.1291 H   0  0  0  0  0  0  0  0  0  0  0  0
    3.8517  -20.2360   21.6462 H   0  0  0  0  0  0  0  0  0  0  0  0
    4.7916  -19.6490   18.0267 H   0  0  0  0  0  0  0  0  0  0  0  0
    6.6387  -17.8353   17.6795 H   0  0  0  0  0  0  0  0  0  0  0  0
    6.6113  -19.3037   21.9609 H   0  0  0  0  0  0  0  0  0  0  0  0
    3.4787  -21.3240   18.8621 H   0  0  0  0  0  0  0  0  0  0  0  0
    2.3769  -20.4732   19.9056 H   0  0  0  0  0  0  0  0  0  0  0  0
    1.4432  -22.6475   19.8053 H   0  0  0  0  0  0  0  0  0  0  0  0
    2.9981  -23.4192   19.6663 H   0  0  0  0  0  0  0  0  0  0  0  0
   -2.7553  -23.5052   22.2932 H   0  0  0  0  0  0  0  0  0  0  0  0
  1  2  2  0
  2  3  1  0
  3  4  2  0
  4  5  1  0
  5  6  1  0
  6  7  1  0
  7  8  1  0
  8  9  1  0
  9 10  1  0
 10 11  1  0
 11 12  1  0
 12 13  2  0
 13 14  1  0
 14 15  1  0
 10 16  1  0
 16 17  1  0
  6 18  2  0
 18 19  1  0
 19 20  2  0
 20  1  1  0
 19  4  1  0
 17  7  1  0
 15 11  2  0
  1 21  1  0
  2 22  1  0
  3 23  1  0
  5 24  1  0
  8 25  1  0
  8 26  1  0
  9 27  1  0
  9 28  1  0
 10 29  1  0
 12 30  1  0
 13 31  1  0
 15 32  1  0
 16 33  1  0
 16 34  1  0
 17 35  1  0
 17 36  1  0
 20 37  1  0
M  END
>  <Energy>  (284) 
10.816551378543513

>  <compound_id>  (284) 
4905

>  <target_id>  (284) 
1

>  <reference_id>  (284) 
66

>  <inspiration_ids>  (284) 
[94, 66]

>  <energy_score>  (284) 
-24.829205796941324

>  <distance_score>  (284) 
16.456378160380222

>  <path>  (284) 
/opt/xchem-fragalysis-2/maxwin/BulkDock/SCRATCH/511016/C4905-P66/C4905-P66.minimised.mol

>  <scratch_subdir>  (284) 
/opt/xchem-fragalysis-2/maxwin/BulkDock/SCRATCH/511016/C4905-P66

>  <fragmenstein_runtime>  (284) 
18.360535860061646

>  <fragmenstein_outcome>  (284) 
too moved

>  <fragmenstein_mode>  (284) 
expansion

>  <fragmenstein_error>  (284) 


$$$$
C4906-P94
     RDKit          3D

 48 51  0  0  0  0  0  0  0  0999 V2000
    3.3956  -14.0374   24.4216 C   0  0  0  0  0  0  0  0  0  0  0  0
    1.7158  -13.3467   24.4123 C   0  0  0  0  0  0  0  0  0  0  0  0
    2.6479  -12.1142   23.1901 C   0  0  0  0  0  0  0  0  0  0  0  0
    4.2348  -11.5411   22.2452 C   0  0  0  0  0  0  0  0  0  0  0  0
    5.6710  -10.7238   22.8249 C   0  0  0  0  0  0  0  0  0  0  0  0
    6.8813  -11.0025   22.1128 C   0  0  0  0  0  0  0  0  0  0  0  0
    6.6216  -11.8216   20.5484 S   0  0  0  0  0  0  0  0  0  0  0  0
    4.8396  -12.1633   20.9132 C   0  0  0  0  0  0  0  0  0  0  0  0
   -0.1060  -14.2994   24.5131 N   0  0  0  0  0  0  0  0  0  0  0  0
   -1.7696  -14.5786   25.6965 C   0  0  0  0  0  0  0  0  0  0  0  0
   -2.4822  -15.7629   24.9861 C   0  0  0  0  0  0  0  0  0  0  0  0
   -2.4123  -17.2476   25.9047 C   0  0  0  0  0  0  0  0  0  0  0  0
   -2.9505  -17.3809   27.3254 C   0  0  0  0  0  0  0  0  0  0  0  0
   -3.7061  -16.3524   28.3656 N   0  0  0  0  0  0  0  0  0  0  0  0
   -5.3052  -16.5861   29.4226 C   0  0  0  0  0  0  0  0  0  0  0  0
   -6.0785  -16.8217   30.9493 N   0  0  0  0  0  0  0  0  0  0  0  0
   -7.4589  -17.9971   31.3624 C   0  0  0  0  0  0  0  0  0  0  0  0
   -8.8352  -19.0870   32.5145 C   0  0  0  0  0  0  0  0  0  0  0  0
  -10.0218  -20.2669   31.5329 C   0  0  0  0  0  0  0  0  0  0  0  0
   -9.9431  -20.4355   29.6005 C   0  0  0  0  0  0  0  0  0  0  0  0
   -8.5052  -19.3650   28.5531 C   0  0  0  0  0  0  0  0  0  0  0  0
   -7.5744  -18.0378   29.5797 C   0  0  0  0  0  0  0  0  0  0  0  0
   -6.8353  -16.8363   29.0362 N   0  0  0  0  0  0  0  0  0  0  0  0
   -2.2511  -15.2069   27.6235 C   0  0  0  0  0  0  0  0  0  0  0  0
    3.8345  -13.1122   24.3708 H   0  0  0  0  0  0  0  0  0  0  0  0
    3.8273  -14.4347   25.3556 H   0  0  0  0  0  0  0  0  0  0  0  0
    3.5019  -14.7360   23.5924 H   0  0  0  0  0  0  0  0  0  0  0  0
    1.6406  -12.9643   25.4347 H   0  0  0  0  0  0  0  0  0  0  0  0
    1.7385  -11.7278   22.7912 H   0  0  0  0  0  0  0  0  0  0  0  0
    3.0636  -12.9528   22.6411 H   0  0  0  0  0  0  0  0  0  0  0  0
    5.7151  -10.0861   23.6879 H   0  0  0  0  0  0  0  0  0  0  0  0
    7.8812  -10.6552   22.3381 H   0  0  0  0  0  0  0  0  0  0  0  0
    4.3773  -12.8729   20.2489 H   0  0  0  0  0  0  0  0  0  0  0  0
   -0.2019  -13.4943   25.1557 H   0  0  0  0  0  0  0  0  0  0  0  0
   -2.2449  -13.6116   25.5485 H   0  0  0  0  0  0  0  0  0  0  0  0
   -1.8814  -15.6588   24.1295 H   0  0  0  0  0  0  0  0  0  0  0  0
   -3.4447  -15.6325   24.5343 H   0  0  0  0  0  0  0  0  0  0  0  0
   -1.4068  -17.7515   26.0533 H   0  0  0  0  0  0  0  0  0  0  0  0
   -2.4621  -18.1116   25.3105 H   0  0  0  0  0  0  0  0  0  0  0  0
   -3.1985  -18.3880   27.4679 H   0  0  0  0  0  0  0  0  0  0  0  0
   -1.9404  -17.4021   27.6668 H   0  0  0  0  0  0  0  0  0  0  0  0
   -8.6656  -18.9700   33.5677 H   0  0  0  0  0  0  0  0  0  0  0  0
  -10.7223  -20.8965   32.0831 H   0  0  0  0  0  0  0  0  0  0  0  0
  -10.5974  -21.1765   29.1171 H   0  0  0  0  0  0  0  0  0  0  0  0
   -8.9403  -18.5766   27.8488 H   0  0  0  0  0  0  0  0  0  0  0  0
   -7.1729  -16.5668   28.1495 H   0  0  0  0  0  0  0  0  0  0  0  0
   -1.3740  -15.7586   27.8718 H   0  0  0  0  0  0  0  0  0  0  0  0
   -2.0552  -14.5836   28.4662 H   0  0  0  0  0  0  0  0  0  0  0  0
  1  2  1  0
  2  3  1  0
  3  4  1  0
  4  5  1  0
  5  6  2  0
  6  7  1  0
  7  8  1  0
  2  9  1  0
  9 10  1  0
 10 11  1  0
 11 12  1  0
 12 13  1  0
 13 14  1  0
 14 15  1  0
 15 16  2  0
 16 17  1  0
 17 18  2  0
 18 19  1  0
 19 20  2  0
 20 21  1  0
 21 22  2  0
 22 23  1  0
 14 24  1  0
  8  4  2  0
 24 10  1  0
 23 15  1  0
 22 17  1  0
  1 25  1  0
  1 26  1  0
  1 27  1  0
  2 28  1  0
  3 29  1  0
  3 30  1  0
  5 31  1  0
  6 32  1  0
  8 33  1  0
  9 34  1  0
 10 35  1  0
 11 36  1  0
 11 37  1  0
 12 38  1  0
 12 39  1  0
 13 40  1  0
 13 41  1  0
 18 42  1  0
 19 43  1  0
 20 44  1  0
 21 45  1  0
 23 46  1  0
 24 47  1  0
 24 48  1  0
M  END
>  <Energy>  (285) 
1940.8564785591452

>  <compound_id>  (285) 
4906

>  <target_id>  (285) 
1

>  <reference_id>  (285) 
94

>  <inspiration_ids>  (285) 
[94, 66]

>  <energy_score>  (285) 
1852.0339364103925

>  <distance_score>  (285) 
11.051725217515788

>  <path>  (285) 
/opt/xchem-fragalysis-2/maxwin/BulkDock/SCRATCH/511016/C4906-P94/C4906-P94.minimised.mol

>  <scratch_subdir>  (285) 
/opt/xchem-fragalysis-2/maxwin/BulkDock/SCRATCH/511016/C4906-P94

>  <fragmenstein_runtime>  (285) 
31.67911696434021

>  <fragmenstein_outcome>  (285) 
too moved

>  <fragmenstein_mode>  (285) 
expansion

>  <fragmenstein_error>  (285) 


$$$$
C4906-P66
     RDKit          3D

 48 51  0  0  0  0  0  0  0  0999 V2000
    2.9508  -14.1585   23.6529 C   0  0  0  0  0  0  0  0  0  0  0  0
    1.5388  -13.4125   24.2996 C   0  0  0  0  0  0  0  0  0  0  0  0
    2.4258  -12.0307   23.3211 C   0  0  0  0  0  0  0  0  0  0  0  0
    4.0303  -11.6312   22.3585 C   0  0  0  0  0  0  0  0  0  0  0  0
    4.6843  -12.3633   20.9550 C   0  0  0  0  0  0  0  0  0  0  0  0
    6.0046  -12.1081   20.5545 C   0  0  0  0  0  0  0  0  0  0  0  0
    6.9503  -11.1296   21.6724 S   0  0  0  0  0  0  0  0  0  0  0  0
    5.2585  -10.7034   22.6781 C   0  0  0  0  0  0  0  0  0  0  0  0
   -0.2819  -14.2773   24.3711 N   0  0  0  0  0  0  0  0  0  0  0  0
   -1.8660  -14.5305   25.6472 C   0  0  0  0  0  0  0  0  0  0  0  0
   -2.5768  -15.7402   25.0313 C   0  0  0  0  0  0  0  0  0  0  0  0
   -2.4287  -17.2416   26.0250 C   0  0  0  0  0  0  0  0  0  0  0  0
   -3.0487  -17.3529   27.3895 C   0  0  0  0  0  0  0  0  0  0  0  0
   -3.8294  -16.3365   28.2077 N   0  0  0  0  0  0  0  0  0  0  0  0
   -5.4449  -16.5204   29.2430 C   0  0  0  0  0  0  0  0  0  0  0  0
   -7.0455  -16.8919   29.6763 N   0  0  0  0  0  0  0  0  0  0  0  0
   -8.5903  -17.3274   28.6611 C   0  0  0  0  0  0  0  0  0  0  0  0
   -9.2038  -18.7375   28.0135 C   0  0  0  0  0  0  0  0  0  0  0  0
   -9.3217  -20.6113   27.6785 C   0  0  0  0  0  0  0  0  0  0  0  0
   -7.7886  -21.0898   27.3943 C   0  0  0  0  0  0  0  0  0  0  0  0
   -7.1259  -19.7919   27.2043 C   0  0  0  0  0  0  0  0  0  0  0  0
   -7.8151  -18.1123   28.0787 C   0  0  0  0  0  0  0  0  0  0  0  0
   -6.9851  -16.6579   28.4423 N   0  0  0  0  0  0  0  0  0  0  0  0
   -2.3489  -15.1701   27.5744 C   0  0  0  0  0  0  0  0  0  0  0  0
    3.1054  -13.9128   22.6433 H   0  0  0  0  0  0  0  0  0  0  0  0
    3.6761  -13.9473   24.4270 H   0  0  0  0  0  0  0  0  0  0  0  0
    3.0996  -15.2095   23.5255 H   0  0  0  0  0  0  0  0  0  0  0  0
    1.6281  -13.1574   25.3786 H   0  0  0  0  0  0  0  0  0  0  0  0
    1.5443  -11.6607   22.8104 H   0  0  0  0  0  0  0  0  0  0  0  0
    2.4956  -11.5258   24.2014 H   0  0  0  0  0  0  0  0  0  0  0  0
    4.0760  -13.0570   20.4246 H   0  0  0  0  0  0  0  0  0  0  0  0
    6.5055  -12.5267   19.6914 H   0  0  0  0  0  0  0  0  0  0  0  0
    5.5156   -9.9915   23.4510 H   0  0  0  0  0  0  0  0  0  0  0  0
   -0.6114  -13.5539   23.7861 H   0  0  0  0  0  0  0  0  0  0  0  0
   -2.3426  -13.5461   25.5751 H   0  0  0  0  0  0  0  0  0  0  0  0
   -3.5278  -15.6087   24.5686 H   0  0  0  0  0  0  0  0  0  0  0  0
   -1.9640  -15.6552   24.1931 H   0  0  0  0  0  0  0  0  0  0  0  0
   -1.4025  -17.6635   26.2436 H   0  0  0  0  0  0  0  0  0  0  0  0
   -2.4484  -18.1430   25.4785 H   0  0  0  0  0  0  0  0  0  0  0  0
   -3.3250  -18.3517   27.5511 H   0  0  0  0  0  0  0  0  0  0  0  0
   -2.0711  -17.3172   27.7971 H   0  0  0  0  0  0  0  0  0  0  0  0
   -8.5169  -19.4266   28.6648 H   0  0  0  0  0  0  0  0  0  0  0  0
  -10.1425  -21.2877   28.0181 H   0  0  0  0  0  0  0  0  0  0  0  0
   -7.3965  -22.0791   27.2450 H   0  0  0  0  0  0  0  0  0  0  0  0
   -6.1162  -19.7424   26.7627 H   0  0  0  0  0  0  0  0  0  0  0  0
   -7.4746  -15.8277   28.7671 H   0  0  0  0  0  0  0  0  0  0  0  0
   -1.4830  -15.7354   27.8379 H   0  0  0  0  0  0  0  0  0  0  0  0
   -2.1572  -14.5475   28.4350 H   0  0  0  0  0  0  0  0  0  0  0  0
  1  2  1  0
  2  3  1  0
  3  4  1  0
  4  5  1  0
  5  6  2  0
  6  7  1  0
  7  8  1  0
  2  9  1  0
  9 10  1  0
 10 11  1  0
 11 12  1  0
 12 13  1  0
 13 14  1  0
 14 15  1  0
 15 16  2  0
 16 17  1  0
 17 18  2  0
 18 19  1  0
 19 20  2  0
 20 21  1  0
 21 22  2  0
 22 23  1  0
 14 24  1  0
  8  4  2  0
 24 10  1  0
 23 15  1  0
 22 17  1  0
  1 25  1  0
  1 26  1  0
  1 27  1  0
  2 28  1  0
  3 29  1  0
  3 30  1  0
  5 31  1  0
  6 32  1  0
  8 33  1  0
  9 34  1  0
 10 35  1  0
 11 36  1  0
 11 37  1  0
 12 38  1  0
 12 39  1  0
 13 40  1  0
 13 41  1  0
 18 42  1  0
 19 43  1  0
 20 44  1  0
 21 45  1  0
 23 46  1  0
 24 47  1  0
 24 48  1  0
M  END
>  <Energy>  (286) 
1858.7373299286685

>  <compound_id>  (286) 
4906

>  <target_id>  (286) 
1

>  <reference_id>  (286) 
66

>  <inspiration_ids>  (286) 
[94, 66]

>  <energy_score>  (286) 
1769.9147877799678

>  <distance_score>  (286) 
11.078215394864234

>  <path>  (286) 
/opt/xchem-fragalysis-2/maxwin/BulkDock/SCRATCH/511016/C4906-P66/C4906-P66.minimised.mol

>  <scratch_subdir>  (286) 
/opt/xchem-fragalysis-2/maxwin/BulkDock/SCRATCH/511016/C4906-P66

>  <fragmenstein_runtime>  (286) 
26.445636987686157

>  <fragmenstein_outcome>  (286) 
too moved

>  <fragmenstein_mode>  (286) 
expansion

>  <fragmenstein_error>  (286) 


$$$$
C4907-P94
     RDKit          3D

 41 44  0  0  0  0  0  0  0  0999 V2000
    1.6652  -13.9042   26.5752 O   0  0  0  0  0  0  0  0  0  0  0  0
    0.9850  -13.4692   25.7107 C   0  0  0  0  0  0  0  0  0  0  0  0
   -0.8919  -13.6886   25.6950 N   0  0  0  0  0  0  0  0  0  0  0  0
   -2.0484  -14.7247   26.8823 C   0  0  0  0  0  0  0  0  0  0  0  0
   -2.2980  -16.3235   27.1908 C   0  0  0  0  0  0  0  0  0  0  0  0
   -3.5802  -16.6575   28.0114 C   0  0  0  0  0  0  0  0  0  0  0  0
   -4.4392  -16.2720   29.6823 N   0  0  0  0  0  0  0  0  0  0  0  0
   -5.5878  -16.4780   31.1619 C   0  0  0  0  0  0  0  0  0  0  0  0
   -6.4754  -17.4475   31.6923 N   0  0  0  0  0  0  0  0  0  0  0  0
   -6.6599  -17.4098   33.1206 C   0  0  0  0  0  0  0  0  0  0  0  0
   -7.6558  -17.8458   34.0056 C   0  0  0  0  0  0  0  0  0  0  0  0
   -7.5675  -17.5260   35.3707 C   0  0  0  0  0  0  0  0  0  0  0  0
   -6.4291  -16.9483   35.8981 C   0  0  0  0  0  0  0  0  0  0  0  0
   -5.3729  -16.6288   35.0651 C   0  0  0  0  0  0  0  0  0  0  0  0
   -5.5858  -16.8363   33.7078 C   0  0  0  0  0  0  0  0  0  0  0  0
   -4.7847  -16.6842   32.6482 N   0  0  0  0  0  0  0  0  0  0  0  0
   -3.1662  -15.4292   29.9082 C   0  0  0  0  0  0  0  0  0  0  0  0
   -2.0193  -14.8838   28.6591 C   0  0  0  0  0  0  0  0  0  0  0  0
    2.0503  -12.7616   24.3994 C   0  0  0  0  0  0  0  0  0  0  0  0
    3.1339  -13.3450   23.6936 C   0  0  0  0  0  0  0  0  0  0  0  0
    3.4407  -12.7060   22.3919 C   0  0  0  0  0  0  0  0  0  0  0  0
    3.7920  -11.0014   22.3797 S   0  0  0  0  0  0  0  0  0  0  0  0
    2.0317  -11.8385   23.4171 C   0  0  0  0  0  0  0  0  0  0  0  0
   -1.2482  -13.3320   24.8688 H   0  0  0  0  0  0  0  0  0  0  0  0
   -2.8303  -14.1365   26.4716 H   0  0  0  0  0  0  0  0  0  0  0  0
   -1.4181  -16.8985   27.5198 H   0  0  0  0  0  0  0  0  0  0  0  0
   -2.5357  -16.8839   26.2426 H   0  0  0  0  0  0  0  0  0  0  0  0
   -2.9128  -17.4945   28.0440 H   0  0  0  0  0  0  0  0  0  0  0  0
   -4.1401  -17.2893   27.3823 H   0  0  0  0  0  0  0  0  0  0  0  0
   -8.5160  -18.3915   33.6581 H   0  0  0  0  0  0  0  0  0  0  0  0
   -8.3907  -17.7296   36.0444 H   0  0  0  0  0  0  0  0  0  0  0  0
   -6.3610  -16.7518   36.9644 H   0  0  0  0  0  0  0  0  0  0  0  0
   -4.4559  -16.1948   35.4461 H   0  0  0  0  0  0  0  0  0  0  0  0
   -3.7853  -16.5557   32.6908 H   0  0  0  0  0  0  0  0  0  0  0  0
   -2.6286  -15.8113   30.7856 H   0  0  0  0  0  0  0  0  0  0  0  0
   -3.6320  -14.4612   29.9859 H   0  0  0  0  0  0  0  0  0  0  0  0
   -1.0177  -15.2528   28.9417 H   0  0  0  0  0  0  0  0  0  0  0  0
   -2.2897  -13.9414   29.0770 H   0  0  0  0  0  0  0  0  0  0  0  0
    3.4489  -14.3646   23.8682 H   0  0  0  0  0  0  0  0  0  0  0  0
    3.6952  -13.1586   21.4266 H   0  0  0  0  0  0  0  0  0  0  0  0
    1.1223  -11.5698   22.8444 H   0  0  0  0  0  0  0  0  0  0  0  0
  1  2  2  0
  2  3  1  0
  3  4  1  0
  4  5  1  0
  5  6  1  0
  6  7  1  0
  7  8  1  0
  8  9  2  0
  9 10  1  0
 10 11  2  0
 11 12  1  0
 12 13  2  0
 13 14  1  0
 14 15  2  0
 15 16  1  0
  7 17  1  0
 17 18  1  0
  2 19  1  0
 19 20  1  0
 20 21  2  0
 21 22  1  0
 22 23  1  0
 18  4  1  0
 23 19  2  0
 16  8  1  0
 15 10  1  0
  3 24  1  0
  4 25  1  0
  5 26  1  0
  5 27  1  0
  6 28  1  0
  6 29  1  0
 11 30  1  0
 12 31  1  0
 13 32  1  0
 14 33  1  0
 16 34  1  0
 17 35  1  0
 17 36  1  0
 18 37  1  0
 18 38  1  0
 20 39  1  0
 21 40  1  0
 23 41  1  0
M  END
>  <Energy>  (287) 
833.63894847804931

>  <compound_id>  (287) 
4907

>  <target_id>  (287) 
1

>  <reference_id>  (287) 
94

>  <inspiration_ids>  (287) 
[94, 66]

>  <energy_score>  (287) 
815.0763575084472

>  <distance_score>  (287) 
13.36851152022336

>  <path>  (287) 
/opt/xchem-fragalysis-2/maxwin/BulkDock/SCRATCH/511016/C4907-P94/C4907-P94.minimised.mol

>  <scratch_subdir>  (287) 
/opt/xchem-fragalysis-2/maxwin/BulkDock/SCRATCH/511016/C4907-P94

>  <fragmenstein_runtime>  (287) 
35.78249502182007

>  <fragmenstein_outcome>  (287) 
too moved

>  <fragmenstein_mode>  (287) 
expansion

>  <fragmenstein_error>  (287) 


$$$$
C4907-P66
     RDKit          3D

 41 44  0  0  0  0  0  0  0  0999 V2000
    3.4857  -15.3018   28.0083 O   0  0  0  0  0  0  0  0  0  0  0  0
    3.2345  -14.5329   27.1658 C   0  0  0  0  0  0  0  0  0  0  0  0
    1.3832  -14.1446   26.8612 N   0  0  0  0  0  0  0  0  0  0  0  0
   -0.3826  -14.7614   27.9370 C   0  0  0  0  0  0  0  0  0  0  0  0
   -1.9983  -15.3851   27.2915 C   0  0  0  0  0  0  0  0  0  0  0  0
   -3.2349  -16.4747   28.0069 C   0  0  0  0  0  0  0  0  0  0  0  0
   -3.9329  -16.1249   29.7218 N   0  0  0  0  0  0  0  0  0  0  0  0
   -5.5679  -16.2013   30.5648 C   0  0  0  0  0  0  0  0  0  0  0  0
   -6.4599  -17.3293   31.4098 N   0  0  0  0  0  0  0  0  0  0  0  0
   -6.0805  -17.8603   32.8586 C   0  0  0  0  0  0  0  0  0  0  0  0
   -6.3057  -18.9116   33.7650 C   0  0  0  0  0  0  0  0  0  0  0  0
   -5.5378  -18.9434   34.9359 C   0  0  0  0  0  0  0  0  0  0  0  0
   -4.6212  -17.9265   35.2176 C   0  0  0  0  0  0  0  0  0  0  0  0
   -4.4503  -16.8332   34.3601 C   0  0  0  0  0  0  0  0  0  0  0  0
   -5.1807  -16.9199   33.1918 C   0  0  0  0  0  0  0  0  0  0  0  0
   -5.8149  -16.0862   32.2910 N   0  0  0  0  0  0  0  0  0  0  0  0
   -2.8778  -14.9476   29.8515 C   0  0  0  0  0  0  0  0  0  0  0  0
   -1.0155  -15.0036   29.7823 C   0  0  0  0  0  0  0  0  0  0  0  0
    4.5656  -13.9826   26.5716 C   0  0  0  0  0  0  0  0  0  0  0  0
    5.5738  -13.2257   27.4277 C   0  0  0  0  0  0  0  0  0  0  0  0
    6.8489  -13.0819   26.9273 C   0  0  0  0  0  0  0  0  0  0  0  0
    7.0917  -14.1807   25.6691 S   0  0  0  0  0  0  0  0  0  0  0  0
    5.3666  -14.5448   25.6127 C   0  0  0  0  0  0  0  0  0  0  0  0
    1.3156  -13.3956   26.1589 H   0  0  0  0  0  0  0  0  0  0  0  0
    0.2778  -15.5870   28.5226 H   0  0  0  0  0  0  0  0  0  0  0  0
   -2.1731  -15.1891   26.2031 H   0  0  0  0  0  0  0  0  0  0  0  0
   -2.4977  -14.4830   27.2663 H   0  0  0  0  0  0  0  0  0  0  0  0
   -2.5510  -17.2968   27.8750 H   0  0  0  0  0  0  0  0  0  0  0  0
   -3.9110  -16.9912   27.3926 H   0  0  0  0  0  0  0  0  0  0  0  0
   -6.9905  -19.7345   33.6294 H   0  0  0  0  0  0  0  0  0  0  0  0
   -5.6745  -19.7626   35.6382 H   0  0  0  0  0  0  0  0  0  0  0  0
   -4.0686  -17.9558   36.1545 H   0  0  0  0  0  0  0  0  0  0  0  0
   -3.8500  -15.9708   34.6183 H   0  0  0  0  0  0  0  0  0  0  0  0
   -6.7801  -15.9565   32.4783 H   0  0  0  0  0  0  0  0  0  0  0  0
   -2.6234  -14.7240   28.9021 H   0  0  0  0  0  0  0  0  0  0  0  0
   -3.3847  -13.9631   29.7830 H   0  0  0  0  0  0  0  0  0  0  0  0
   -0.3994  -15.7566   30.2826 H   0  0  0  0  0  0  0  0  0  0  0  0
   -0.7331  -14.3350   30.6173 H   0  0  0  0  0  0  0  0  0  0  0  0
    5.3109  -12.7736   28.3746 H   0  0  0  0  0  0  0  0  0  0  0  0
    7.6702  -12.5225   27.3538 H   0  0  0  0  0  0  0  0  0  0  0  0
    5.0400  -15.2126   24.8237 H   0  0  0  0  0  0  0  0  0  0  0  0
  1  2  2  0
  2  3  1  0
  3  4  1  0
  4  5  1  0
  5  6  1  0
  6  7  1  0
  7  8  1  0
  8  9  2  0
  9 10  1  0
 10 11  2  0
 11 12  1  0
 12 13  2  0
 13 14  1  0
 14 15  2  0
 15 16  1  0
  7 17  1  0
 17 18  1  0
  2 19  1  0
 19 20  1  0
 20 21  2  0
 21 22  1  0
 22 23  1  0
 18  4  1  0
 23 19  2  0
 16  8  1  0
 15 10  1  0
  3 24  1  0
  4 25  1  0
  5 26  1  0
  5 27  1  0
  6 28  1  0
  6 29  1  0
 11 30  1  0
 12 31  1  0
 13 32  1  0
 14 33  1  0
 16 34  1  0
 17 35  1  0
 17 36  1  0
 18 37  1  0
 18 38  1  0
 20 39  1  0
 21 40  1  0
 23 41  1  0
M  END
>  <Energy>  (288) 
961.78872322997631

>  <compound_id>  (288) 
4907

>  <target_id>  (288) 
1

>  <reference_id>  (288) 
66

>  <inspiration_ids>  (288) 
[94, 66]

>  <energy_score>  (288) 
943.2261322603515

>  <distance_score>  (288) 
13.79962195474612

>  <path>  (288) 
/opt/xchem-fragalysis-2/maxwin/BulkDock/SCRATCH/511016/C4907-P66/C4907-P66.minimised.mol

>  <scratch_subdir>  (288) 
/opt/xchem-fragalysis-2/maxwin/BulkDock/SCRATCH/511016/C4907-P66

>  <fragmenstein_runtime>  (288) 
31.288381814956665

>  <fragmenstein_outcome>  (288) 
too moved

>  <fragmenstein_mode>  (288) 
expansion

>  <fragmenstein_error>  (288) 


$$$$
C4908-P94
     RDKit          3D

 35 37  0  0  0  0  0  0  0  0999 V2000
    5.8245  -17.6238   24.8987 O   0  0  0  0  0  0  0  0  0  0  0  0
    5.2105  -16.9421   25.6740 C   0  0  0  0  0  0  0  0  0  0  0  0
    5.5005  -15.3848   25.5136 C   0  0  0  0  0  0  0  0  0  0  0  0
    6.0566  -14.8727   24.3648 C   0  0  0  0  0  0  0  0  0  0  0  0
    6.5328  -13.5457   23.9688 C   0  0  0  0  0  0  0  0  0  0  0  0
    6.5335  -13.0729   22.6005 C   0  0  0  0  0  0  0  0  0  0  0  0
    7.1352  -11.8402   22.4388 C   0  0  0  0  0  0  0  0  0  0  0  0
    7.7363  -11.2392   23.9199 S   0  0  0  0  0  0  0  0  0  0  0  0
    7.1555  -12.6181   24.7816 C   0  0  0  0  0  0  0  0  0  0  0  0
    4.2633  -17.3189   26.7438 N   0  0  0  0  0  0  0  0  0  0  0  0
    3.8503  -18.6689   27.2592 C   0  0  0  0  0  0  0  0  0  0  0  0
    2.4042  -19.0647   27.7677 C   0  0  0  0  0  0  0  0  0  0  0  0
    1.5227  -19.8325   27.1194 N   0  0  0  0  0  0  0  0  0  0  0  0
    0.7565  -20.5040   28.0630 C   0  0  0  0  0  0  0  0  0  0  0  0
   -0.1662  -21.5658   27.9156 C   0  0  0  0  0  0  0  0  0  0  0  0
   -0.7742  -22.0981   29.0657 C   0  0  0  0  0  0  0  0  0  0  0  0
   -1.6997  -23.2257   28.9374 N   0  0  0  0  0  0  0  0  0  0  0  0
   -2.0355  -23.5764   27.7991 O   0  0  0  0  0  0  0  0  0  0  0  0
   -2.0888  -23.7669   29.9813 O   0  0  0  0  0  0  0  0  0  0  0  0
   -0.4738  -21.5948   30.3374 C   0  0  0  0  0  0  0  0  0  0  0  0
    0.4516  -20.5453   30.4905 C   0  0  0  0  0  0  0  0  0  0  0  0
    1.0494  -20.0266   29.3290 C   0  0  0  0  0  0  0  0  0  0  0  0
    2.0321  -19.0654   29.1147 N   0  0  0  0  0  0  0  0  0  0  0  0
    5.2932  -14.7674   26.3759 H   0  0  0  0  0  0  0  0  0  0  0  0
    6.1885  -15.6094   23.5672 H   0  0  0  0  0  0  0  0  0  0  0  0
    6.1177  -13.6313   21.7696 H   0  0  0  0  0  0  0  0  0  0  0  0
    7.2652  -11.2802   21.5228 H   0  0  0  0  0  0  0  0  0  0  0  0
    7.3440  -12.6873   25.8437 H   0  0  0  0  0  0  0  0  0  0  0  0
    3.9972  -16.4918   27.2561 H   0  0  0  0  0  0  0  0  0  0  0  0
    4.1049  -19.3795   26.4633 H   0  0  0  0  0  0  0  0  0  0  0  0
    4.5416  -18.8743   28.0860 H   0  0  0  0  0  0  0  0  0  0  0  0
   -0.3456  -21.9851   26.9289 H   0  0  0  0  0  0  0  0  0  0  0  0
   -0.9401  -22.0090   31.2308 H   0  0  0  0  0  0  0  0  0  0  0  0
    0.6996  -20.1636   31.4768 H   0  0  0  0  0  0  0  0  0  0  0  0
    2.5530  -18.6134   29.8509 H   0  0  0  0  0  0  0  0  0  0  0  0
  1  2  2  0
  2  3  1  0
  3  4  2  3
  4  5  1  0
  5  6  1  0
  6  7  2  0
  7  8  1  0
  8  9  1  0
  2 10  1  0
 10 11  1  0
 11 12  1  0
 12 13  2  0
 13 14  1  0
 14 15  2  0
 15 16  1  0
 16 17  1  0
 17 18  2  0
 17 19  1  0
 16 20  2  0
 20 21  1  0
 21 22  2  0
 22 23  1  0
  9  5  2  0
 23 12  1  0
 22 14  1  0
  3 24  1  0
  4 25  1  0
  6 26  1  0
  7 27  1  0
  9 28  1  0
 10 29  1  0
 11 30  1  0
 11 31  1  0
 15 32  1  0
 20 33  1  0
 21 34  1  0
 23 35  1  0
M  CHG  2  17   1  19  -1
M  END
>  <Energy>  (289) 
42.247147680633198

>  <compound_id>  (289) 
4908

>  <target_id>  (289) 
1

>  <reference_id>  (289) 
94

>  <inspiration_ids>  (289) 
[94, 66]

>  <energy_score>  (289) 
3.256699105140001

>  <distance_score>  (289) 
14.220595191716146

>  <path>  (289) 
/opt/xchem-fragalysis-2/maxwin/BulkDock/SCRATCH/511016/C4908-P94/C4908-P94.minimised.mol

>  <scratch_subdir>  (289) 
/opt/xchem-fragalysis-2/maxwin/BulkDock/SCRATCH/511016/C4908-P94

>  <fragmenstein_runtime>  (289) 
22.283241748809814

>  <fragmenstein_outcome>  (289) 
too moved

>  <fragmenstein_mode>  (289) 
expansion

>  <fragmenstein_error>  (289) 


$$$$
C4908-P66
     RDKit          3D

 35 37  0  0  0  0  0  0  0  0999 V2000
   -3.4542  -12.4440   25.0173 O   0  0  0  0  0  0  0  0  0  0  0  0
   -4.3814  -11.8274   24.5133 C   0  0  0  0  0  0  0  0  0  0  0  0
   -3.6318  -10.2433   23.4376 C   0  0  0  0  0  0  0  0  0  0  0  0
   -3.2615   -9.5831   22.2197 C   0  0  0  0  0  0  0  0  0  0  0  0
   -2.0260   -8.7671   21.8481 C   0  0  0  0  0  0  0  0  0  0  0  0
   -0.7128   -9.2429   21.5722 C   0  0  0  0  0  0  0  0  0  0  0  0
    0.1959   -8.2610   21.2117 C   0  0  0  0  0  0  0  0  0  0  0  0
   -0.5182   -6.7235   21.1742 S   0  0  0  0  0  0  0  0  0  0  0  0
   -2.0375   -7.3900   21.6344 C   0  0  0  0  0  0  0  0  0  0  0  0
   -6.2206  -12.2519   24.8938 N   0  0  0  0  0  0  0  0  0  0  0  0
   -7.0802  -13.6045   26.2264 C   0  0  0  0  0  0  0  0  0  0  0  0
   -8.4473  -15.0810   26.8338 C   0  0  0  0  0  0  0  0  0  0  0  0
   -8.1724  -16.5525   27.2974 N   0  0  0  0  0  0  0  0  0  0  0  0
   -9.2108  -17.8267   27.8249 C   0  0  0  0  0  0  0  0  0  0  0  0
   -9.2362  -19.6444   28.2268 C   0  0  0  0  0  0  0  0  0  0  0  0
  -10.6567  -20.5745   29.1676 C   0  0  0  0  0  0  0  0  0  0  0  0
  -11.0455  -21.9943   29.0739 N   0  0  0  0  0  0  0  0  0  0  0  0
  -10.6727  -22.6832   28.1246 O   0  0  0  0  0  0  0  0  0  0  0  0
  -11.7530  -22.3916   30.0099 O   0  0  0  0  0  0  0  0  0  0  0  0
  -12.1689  -19.7346   28.9304 C   0  0  0  0  0  0  0  0  0  0  0  0
  -11.8017  -17.9232   28.5749 C   0  0  0  0  0  0  0  0  0  0  0  0
  -10.3929  -17.0323   28.0113 C   0  0  0  0  0  0  0  0  0  0  0  0
   -9.9729  -15.4486   27.4808 N   0  0  0  0  0  0  0  0  0  0  0  0
   -2.8916   -9.7521   24.0951 H   0  0  0  0  0  0  0  0  0  0  0  0
   -3.9567   -8.7541   22.2271 H   0  0  0  0  0  0  0  0  0  0  0  0
   -0.4092  -10.2742   21.6317 H   0  0  0  0  0  0  0  0  0  0  0  0
    1.2387   -8.4086   20.9692 H   0  0  0  0  0  0  0  0  0  0  0  0
   -2.8769   -6.7168   21.7413 H   0  0  0  0  0  0  0  0  0  0  0  0
   -6.8155  -11.5728   24.4443 H   0  0  0  0  0  0  0  0  0  0  0  0
   -7.0212  -14.4463   25.5546 H   0  0  0  0  0  0  0  0  0  0  0  0
   -6.6941  -13.3609   27.1884 H   0  0  0  0  0  0  0  0  0  0  0  0
   -9.2816  -20.6079   27.5791 H   0  0  0  0  0  0  0  0  0  0  0  0
  -13.0753  -20.2438   29.1494 H   0  0  0  0  0  0  0  0  0  0  0  0
  -12.6231  -17.2118   28.5295 H   0  0  0  0  0  0  0  0  0  0  0  0
  -10.6412  -14.7074   27.5952 H   0  0  0  0  0  0  0  0  0  0  0  0
  1  2  2  0
  2  3  1  0
  3  4  2  3
  4  5  1  0
  5  6  1  0
  6  7  2  0
  7  8  1  0
  8  9  1  0
  2 10  1  0
 10 11  1  0
 11 12  1  0
 12 13  2  0
 13 14  1  0
 14 15  2  0
 15 16  1  0
 16 17  1  0
 17 18  2  0
 17 19  1  0
 16 20  2  0
 20 21  1  0
 21 22  2  0
 22 23  1  0
  9  5  2  0
 23 12  1  0
 22 14  1  0
  3 24  1  0
  4 25  1  0
  6 26  1  0
  7 27  1  0
  9 28  1  0
 10 29  1  0
 11 30  1  0
 11 31  1  0
 15 32  1  0
 20 33  1  0
 21 34  1  0
 23 35  1  0
M  CHG  2  17   1  19  -1
M  END
>  <Energy>  (290) 
1077.010616057931

>  <compound_id>  (290) 
4908

>  <target_id>  (290) 
1

>  <reference_id>  (290) 
66

>  <inspiration_ids>  (290) 
[94, 66]

>  <energy_score>  (290) 
1038.02016748242

>  <distance_score>  (290) 
12.707553224094116

>  <path>  (290) 
/opt/xchem-fragalysis-2/maxwin/BulkDock/SCRATCH/511016/C4908-P66/C4908-P66.minimised.mol

>  <scratch_subdir>  (290) 
/opt/xchem-fragalysis-2/maxwin/BulkDock/SCRATCH/511016/C4908-P66

>  <fragmenstein_runtime>  (290) 
16.948113679885864

>  <fragmenstein_outcome>  (290) 
too moved

>  <fragmenstein_mode>  (290) 
expansion

>  <fragmenstein_error>  (290) 


$$$$
C4909-P94
     RDKit          3D

 35 37  0  0  0  0  0  0  0  0999 V2000
    1.3218  -12.7090   33.3322 O   0  0  0  0  0  0  0  0  0  0  0  0
    0.5742  -12.5196   32.4164 C   0  0  0  0  0  0  0  0  0  0  0  0
   -0.6902  -13.1717   32.0690 N   0  0  0  0  0  0  0  0  0  0  0  0
   -1.3933  -14.3412   32.6881 C   0  0  0  0  0  0  0  0  0  0  0  0
   -2.9067  -14.6383   32.3210 C   0  0  0  0  0  0  0  0  0  0  0  0
   -3.2367  -16.0508   31.7240 C   0  0  0  0  0  0  0  0  0  0  0  0
   -3.9476  -17.0225   32.5414 N   0  0  0  0  0  0  0  0  0  0  0  0
   -3.4676  -18.2538   32.9103 C   0  0  0  0  0  0  0  0  0  0  0  0
   -4.3442  -18.9464   33.5999 N   0  0  0  0  0  0  0  0  0  0  0  0
   -5.4624  -18.1518   33.6447 C   0  0  0  0  0  0  0  0  0  0  0  0
   -6.6833  -18.3680   34.2936 C   0  0  0  0  0  0  0  0  0  0  0  0
   -7.6589  -17.3653   34.2262 C   0  0  0  0  0  0  0  0  0  0  0  0
   -7.4537  -16.2051   33.4810 C   0  0  0  0  0  0  0  0  0  0  0  0
   -6.2535  -15.9854   32.8067 C   0  0  0  0  0  0  0  0  0  0  0  0
   -5.2597  -16.9587   32.9489 C   0  0  0  0  0  0  0  0  0  0  0  0
    1.0933  -11.4876   31.3879 C   0  0  0  0  0  0  0  0  0  0  0  0
    0.4001  -10.4598   30.6311 C   0  0  0  0  0  0  0  0  0  0  0  0
    1.2009   -9.7509   29.7470 C   0  0  0  0  0  0  0  0  0  0  0  0
    2.8305  -10.2490   29.8269 S   0  0  0  0  0  0  0  0  0  0  0  0
    2.4528  -11.3954   31.0557 C   0  0  0  0  0  0  0  0  0  0  0  0
   -1.0140  -12.8135   31.1742 H   0  0  0  0  0  0  0  0  0  0  0  0
   -0.7759  -15.2112   32.4398 H   0  0  0  0  0  0  0  0  0  0  0  0
   -1.3087  -14.2038   33.7721 H   0  0  0  0  0  0  0  0  0  0  0  0
   -3.2120  -13.8882   31.5805 H   0  0  0  0  0  0  0  0  0  0  0  0
   -3.5158  -14.4619   33.2151 H   0  0  0  0  0  0  0  0  0  0  0  0
   -3.8747  -15.9083   30.8443 H   0  0  0  0  0  0  0  0  0  0  0  0
   -2.3191  -16.5276   31.3607 H   0  0  0  0  0  0  0  0  0  0  0  0
   -2.4708  -18.5900   32.6581 H   0  0  0  0  0  0  0  0  0  0  0  0
   -6.8390  -19.2893   34.8394 H   0  0  0  0  0  0  0  0  0  0  0  0
   -8.6049  -17.4780   34.7428 H   0  0  0  0  0  0  0  0  0  0  0  0
   -8.2434  -15.4584   33.4320 H   0  0  0  0  0  0  0  0  0  0  0  0
   -6.0884  -15.0727   32.2462 H   0  0  0  0  0  0  0  0  0  0  0  0
   -0.6624  -10.2791   30.7306 H   0  0  0  0  0  0  0  0  0  0  0  0
    0.8965   -8.9576   29.0785 H   0  0  0  0  0  0  0  0  0  0  0  0
    3.2506  -11.9960   31.4747 H   0  0  0  0  0  0  0  0  0  0  0  0
  1  2  2  0
  2  3  1  0
  3  4  1  0
  4  5  1  0
  5  6  1  0
  6  7  1  0
  7  8  1  0
  8  9  2  0
  9 10  1  0
 10 11  2  0
 11 12  1  0
 12 13  2  0
 13 14  1  0
 14 15  2  0
  2 16  1  0
 16 17  1  0
 17 18  2  0
 18 19  1  0
 19 20  1  0
 15  7  1  0
 20 16  2  0
 15 10  1  0
  3 21  1  0
  4 22  1  0
  4 23  1  0
  5 24  1  0
  5 25  1  0
  6 26  1  0
  6 27  1  0
  8 28  1  0
 11 29  1  0
 12 30  1  0
 13 31  1  0
 14 32  1  0
 17 33  1  0
 18 34  1  0
 20 35  1  0
M  END
>  <Energy>  (291) 
23.056505330531074

>  <compound_id>  (291) 
4909

>  <target_id>  (291) 
1

>  <reference_id>  (291) 
94

>  <inspiration_ids>  (291) 
[94, 66]

>  <energy_score>  (291) 
0.5417401642920368

>  <distance_score>  (291) 
15.426356109807584

>  <path>  (291) 
/opt/xchem-fragalysis-2/maxwin/BulkDock/SCRATCH/511016/C4909-P94/C4909-P94.minimised.mol

>  <scratch_subdir>  (291) 
/opt/xchem-fragalysis-2/maxwin/BulkDock/SCRATCH/511016/C4909-P94

>  <fragmenstein_runtime>  (291) 
21.34927010536194

>  <fragmenstein_outcome>  (291) 
too moved

>  <fragmenstein_mode>  (291) 
expansion

>  <fragmenstein_error>  (291) 


$$$$
C4909-P66
     RDKit          3D

 35 37  0  0  0  0  0  0  0  0999 V2000
    3.3291  -15.2132   23.2000 O   0  0  0  0  0  0  0  0  0  0  0  0
    2.9686  -14.1087   23.5063 C   0  0  0  0  0  0  0  0  0  0  0  0
    1.3490  -13.5752   24.0035 N   0  0  0  0  0  0  0  0  0  0  0  0
   -0.3931  -14.5426   24.0921 C   0  0  0  0  0  0  0  0  0  0  0  0
   -2.1141  -15.2661   24.9601 C   0  0  0  0  0  0  0  0  0  0  0  0
   -2.8035  -16.9893   25.7368 C   0  0  0  0  0  0  0  0  0  0  0  0
   -3.2672  -17.5946   27.0018 N   0  0  0  0  0  0  0  0  0  0  0  0
   -2.7589  -17.4230   28.2601 C   0  0  0  0  0  0  0  0  0  0  0  0
   -2.9090  -18.4975   29.0063 N   0  0  0  0  0  0  0  0  0  0  0  0
   -3.5258  -19.4217   28.2061 C   0  0  0  0  0  0  0  0  0  0  0  0
   -3.7329  -20.7934   28.4085 C   0  0  0  0  0  0  0  0  0  0  0  0
   -4.3500  -21.5522   27.4030 C   0  0  0  0  0  0  0  0  0  0  0  0
   -4.7985  -20.9447   26.2361 C   0  0  0  0  0  0  0  0  0  0  0  0
   -4.5888  -19.5788   26.0072 C   0  0  0  0  0  0  0  0  0  0  0  0
   -3.8987  -18.8514   26.9944 C   0  0  0  0  0  0  0  0  0  0  0  0
    4.1017  -13.1297   23.2962 C   0  0  0  0  0  0  0  0  0  0  0  0
    4.5914  -12.7408   21.9747 C   0  0  0  0  0  0  0  0  0  0  0  0
    5.8284  -12.1288   21.9238 C   0  0  0  0  0  0  0  0  0  0  0  0
    6.6143  -12.2728   23.4229 S   0  0  0  0  0  0  0  0  0  0  0  0
    5.2784  -13.1649   24.0639 C   0  0  0  0  0  0  0  0  0  0  0  0
    1.3775  -12.5898   24.2825 H   0  0  0  0  0  0  0  0  0  0  0  0
   -0.6327  -14.5142   23.0408 H   0  0  0  0  0  0  0  0  0  0  0  0
   -0.8667  -13.8062   24.6872 H   0  0  0  0  0  0  0  0  0  0  0  0
   -2.3290  -14.5362   25.7402 H   0  0  0  0  0  0  0  0  0  0  0  0
   -2.8570  -15.2796   24.1516 H   0  0  0  0  0  0  0  0  0  0  0  0
   -3.6830  -17.1357   25.0814 H   0  0  0  0  0  0  0  0  0  0  0  0
   -2.0519  -17.7989   25.5640 H   0  0  0  0  0  0  0  0  0  0  0  0
   -2.2383  -16.5236   28.5637 H   0  0  0  0  0  0  0  0  0  0  0  0
   -3.3820  -21.2462   29.3292 H   0  0  0  0  0  0  0  0  0  0  0  0
   -4.4784  -22.6222   27.5379 H   0  0  0  0  0  0  0  0  0  0  0  0
   -5.2613  -21.5573   25.4658 H   0  0  0  0  0  0  0  0  0  0  0  0
   -4.8769  -19.1317   25.0624 H   0  0  0  0  0  0  0  0  0  0  0  0
    4.0605  -12.9976   21.0714 H   0  0  0  0  0  0  0  0  0  0  0  0
    6.3382  -11.7311   21.0560 H   0  0  0  0  0  0  0  0  0  0  0  0
    5.4148  -13.6771   25.0071 H   0  0  0  0  0  0  0  0  0  0  0  0
  1  2  2  0
  2  3  1  0
  3  4  1  0
  4  5  1  0
  5  6  1  0
  6  7  1  0
  7  8  1  0
  8  9  2  0
  9 10  1  0
 10 11  2  0
 11 12  1  0
 12 13  2  0
 13 14  1  0
 14 15  2  0
  2 16  1  0
 16 17  1  0
 17 18  2  0
 18 19  1  0
 19 20  1  0
 15  7  1  0
 20 16  2  0
 15 10  1  0
  3 21  1  0
  4 22  1  0
  4 23  1  0
  5 24  1  0
  5 25  1  0
  6 26  1  0
  6 27  1  0
  8 28  1  0
 11 29  1  0
 12 30  1  0
 13 31  1  0
 14 32  1  0
 17 33  1  0
 18 34  1  0
 20 35  1  0
M  END
>  <Energy>  (292) 
385.58301143077728

>  <compound_id>  (292) 
4909

>  <target_id>  (292) 
1

>  <reference_id>  (292) 
66

>  <inspiration_ids>  (292) 
[94, 66]

>  <energy_score>  (292) 
363.06824626453675

>  <distance_score>  (292) 
13.151701454631805

>  <path>  (292) 
/opt/xchem-fragalysis-2/maxwin/BulkDock/SCRATCH/511016/C4909-P66/C4909-P66.minimised.mol

>  <scratch_subdir>  (292) 
/opt/xchem-fragalysis-2/maxwin/BulkDock/SCRATCH/511016/C4909-P66

>  <fragmenstein_runtime>  (292) 
24.14400577545166

>  <fragmenstein_outcome>  (292) 
too moved

>  <fragmenstein_mode>  (292) 
expansion

>  <fragmenstein_error>  (292) 


$$$$
C4910-P94
     RDKit          3D

 47 50  0  0  0  0  0  0  0  0999 V2000
    1.7730  -11.6503   22.1728 O   0  0  0  0  0  0  0  0  0  0  0  0
    2.2187  -11.4810   23.1590 C   0  0  0  0  0  0  0  0  0  0  0  0
    1.9410  -12.6000   24.2689 N   0  0  0  0  0  0  0  0  0  0  0  0
    0.8159  -14.1694   24.2683 C   0  0  0  0  0  0  0  0  0  0  0  0
   -1.0103  -14.7422   24.4200 C   0  0  0  0  0  0  0  0  0  0  0  0
   -2.4606  -15.5974   25.1172 C   0  0  0  0  0  0  0  0  0  0  0  0
   -2.9444  -17.1511   25.6027 N   0  0  0  0  0  0  0  0  0  0  0  0
   -3.8750  -17.8943   24.8379 C   0  0  0  0  0  0  0  0  0  0  0  0
   -4.1458  -19.0750   25.3356 N   0  0  0  0  0  0  0  0  0  0  0  0
   -3.6374  -19.0378   26.5978 C   0  0  0  0  0  0  0  0  0  0  0  0
   -3.8315  -19.9866   27.6157 C   0  0  0  0  0  0  0  0  0  0  0  0
   -3.3917  -19.6856   28.9002 C   0  0  0  0  0  0  0  0  0  0  0  0
   -2.7411  -18.4786   29.1469 C   0  0  0  0  0  0  0  0  0  0  0  0
   -2.4780  -17.5472   28.1249 C   0  0  0  0  0  0  0  0  0  0  0  0
   -2.9270  -17.8437   26.8312 C   0  0  0  0  0  0  0  0  0  0  0  0
    3.0914   -9.6134   23.3099 N   0  0  0  0  0  0  0  0  0  0  0  0
    1.7510   -8.1819   23.9389 C   0  0  0  0  0  0  0  0  0  0  0  0
    0.5842   -7.8899   23.0152 C   0  0  0  0  0  0  0  0  0  0  0  0
    1.3577   -8.1839   21.8835 C   0  0  0  0  0  0  0  0  0  0  0  0
    3.1551   -8.4250   22.4465 C   0  0  0  0  0  0  0  0  0  0  0  0
    4.8023   -7.6350   23.4517 C   0  0  0  0  0  0  0  0  0  0  0  0
    6.3687   -6.8981   23.0513 C   0  0  0  0  0  0  0  0  0  0  0  0
    7.5974   -7.3015   23.6086 C   0  0  0  0  0  0  0  0  0  0  0  0
    7.3558   -8.2836   25.0045 S   0  0  0  0  0  0  0  0  0  0  0  0
    5.5390   -8.1717   24.7842 C   0  0  0  0  0  0  0  0  0  0  0  0
    2.3243  -12.2799   25.1182 H   0  0  0  0  0  0  0  0  0  0  0  0
    0.2671  -13.9976   23.3499 H   0  0  0  0  0  0  0  0  0  0  0  0
    0.8610  -13.8784   25.3528 H   0  0  0  0  0  0  0  0  0  0  0  0
   -1.2797  -13.8530   25.0167 H   0  0  0  0  0  0  0  0  0  0  0  0
   -1.2027  -14.9237   23.3693 H   0  0  0  0  0  0  0  0  0  0  0  0
   -3.2293  -15.4923   24.3447 H   0  0  0  0  0  0  0  0  0  0  0  0
   -2.3782  -14.9737   26.0161 H   0  0  0  0  0  0  0  0  0  0  0  0
   -4.3083  -17.4969   23.9259 H   0  0  0  0  0  0  0  0  0  0  0  0
   -4.3647  -20.9045   27.4023 H   0  0  0  0  0  0  0  0  0  0  0  0
   -3.5772  -20.3759   29.7187 H   0  0  0  0  0  0  0  0  0  0  0  0
   -2.4270  -18.2464   30.1637 H   0  0  0  0  0  0  0  0  0  0  0  0
   -1.9863  -16.6085   28.3594 H   0  0  0  0  0  0  0  0  0  0  0  0
    2.1846   -7.2023   23.9608 H   0  0  0  0  0  0  0  0  0  0  0  0
    0.8806   -8.2671   24.6458 H   0  0  0  0  0  0  0  0  0  0  0  0
   -0.3544   -8.4237   22.9728 H   0  0  0  0  0  0  0  0  0  0  0  0
    0.4058   -6.8371   23.2101 H   0  0  0  0  0  0  0  0  0  0  0  0
    1.0126   -9.0905   21.3615 H   0  0  0  0  0  0  0  0  0  0  0  0
    1.1419   -7.3352   21.2172 H   0  0  0  0  0  0  0  0  0  0  0  0
    3.2969   -7.8156   23.2944 H   0  0  0  0  0  0  0  0  0  0  0  0
    6.6664   -6.6920   22.0508 H   0  0  0  0  0  0  0  0  0  0  0  0
    8.5955   -7.0539   23.2671 H   0  0  0  0  0  0  0  0  0  0  0  0
    5.1671   -8.6655   25.6444 H   0  0  0  0  0  0  0  0  0  0  0  0
  1  2  2  0
  2  3  1  0
  3  4  1  0
  4  5  1  0
  5  6  1  0
  6  7  1  0
  7  8  1  0
  8  9  2  0
  9 10  1  0
 10 11  2  0
 11 12  1  0
 12 13  2  0
 13 14  1  0
 14 15  2  0
  2 16  1  0
 16 17  1  0
 17 18  1  0
 18 19  1  0
 19 20  1  0
 20 21  1  0
 21 22  1  0
 22 23  2  0
 23 24  1  0
 24 25  1  0
 15  7  1  0
 20 16  1  0
 25 21  2  0
 15 10  1  0
  3 26  1  0
  4 27  1  0
  4 28  1  0
  5 29  1  0
  5 30  1  0
  6 31  1  0
  6 32  1  0
  8 33  1  0
 11 34  1  0
 12 35  1  0
 13 36  1  0
 14 37  1  0
 17 38  1  0
 17 39  1  0
 18 40  1  0
 18 41  1  0
 19 42  1  0
 19 43  1  0
 20 44  1  0
 22 45  1  0
 23 46  1  0
 25 47  1  0
M  END
>  <Energy>  (293) 
1075.179402605412

>  <compound_id>  (293) 
4910

>  <target_id>  (293) 
1

>  <reference_id>  (293) 
94

>  <inspiration_ids>  (293) 
[94, 66]

>  <energy_score>  (293) 
1082.9705901154366

>  <distance_score>  (293) 
12.474762380829373

>  <path>  (293) 
/opt/xchem-fragalysis-2/maxwin/BulkDock/SCRATCH/511016/C4910-P94/C4910-P94.minimised.mol

>  <scratch_subdir>  (293) 
/opt/xchem-fragalysis-2/maxwin/BulkDock/SCRATCH/511016/C4910-P94

>  <fragmenstein_runtime>  (293) 
32.52660822868347

>  <fragmenstein_outcome>  (293) 
too moved

>  <fragmenstein_mode>  (293) 
expansion

>  <fragmenstein_error>  (293) 


$$$$
C4910-P66
     RDKit          3D

 47 50  0  0  0  0  0  0  0  0999 V2000
   -0.8678   -8.1440   26.3666 O   0  0  0  0  0  0  0  0  0  0  0  0
   -0.1826   -8.2234   27.3347 C   0  0  0  0  0  0  0  0  0  0  0  0
    0.5918   -9.5544   27.9569 N   0  0  0  0  0  0  0  0  0  0  0  0
    0.7456  -11.2186   27.3282 C   0  0  0  0  0  0  0  0  0  0  0  0
    0.3803  -13.2534   26.9382 C   0  0  0  0  0  0  0  0  0  0  0  0
   -0.7431  -14.7458   28.0368 C   0  0  0  0  0  0  0  0  0  0  0  0
   -1.8416  -15.3799   29.1102 N   0  0  0  0  0  0  0  0  0  0  0  0
   -2.0467  -15.1198   30.4594 C   0  0  0  0  0  0  0  0  0  0  0  0
   -2.8823  -15.9426   31.0565 N   0  0  0  0  0  0  0  0  0  0  0  0
   -3.1309  -16.9291   30.1583 C   0  0  0  0  0  0  0  0  0  0  0  0
   -3.8837  -18.1042   30.3444 C   0  0  0  0  0  0  0  0  0  0  0  0
   -3.9215  -19.0538   29.3270 C   0  0  0  0  0  0  0  0  0  0  0  0
   -3.2636  -18.8253   28.1305 C   0  0  0  0  0  0  0  0  0  0  0  0
   -2.5262  -17.6471   27.9296 C   0  0  0  0  0  0  0  0  0  0  0  0
   -2.4642  -16.6763   28.9506 C   0  0  0  0  0  0  0  0  0  0  0  0
    0.1481   -7.1282   28.4265 N   0  0  0  0  0  0  0  0  0  0  0  0
   -0.8167   -7.1980   29.5235 C   0  0  0  0  0  0  0  0  0  0  0  0
   -2.0481   -6.4076   29.4585 C   0  0  0  0  0  0  0  0  0  0  0  0
   -1.3890   -5.1011   29.4285 C   0  0  0  0  0  0  0  0  0  0  0  0
   -0.2603   -5.4889   28.4893 C   0  0  0  0  0  0  0  0  0  0  0  0
    0.9188   -4.4619   28.7562 C   0  0  0  0  0  0  0  0  0  0  0  0
    1.1774   -3.2674   27.9843 C   0  0  0  0  0  0  0  0  0  0  0  0
    2.3337   -2.5981   28.3228 C   0  0  0  0  0  0  0  0  0  0  0  0
    3.0297   -3.2602   29.7298 S   0  0  0  0  0  0  0  0  0  0  0  0
    1.8436   -4.5040   29.7922 C   0  0  0  0  0  0  0  0  0  0  0  0
    1.0319   -9.3096   28.8431 H   0  0  0  0  0  0  0  0  0  0  0  0
    0.5268  -11.2417   28.3951 H   0  0  0  0  0  0  0  0  0  0  0  0
    1.7970  -11.1052   27.3324 H   0  0  0  0  0  0  0  0  0  0  0  0
    1.3594  -13.6592   26.6073 H   0  0  0  0  0  0  0  0  0  0  0  0
   -0.0570  -13.1851   25.9955 H   0  0  0  0  0  0  0  0  0  0  0  0
   -1.5411  -15.0832   27.3395 H   0  0  0  0  0  0  0  0  0  0  0  0
   -0.0355  -15.4090   28.6342 H   0  0  0  0  0  0  0  0  0  0  0  0
   -1.5686  -14.3150   30.9970 H   0  0  0  0  0  0  0  0  0  0  0  0
   -4.3896  -18.2805   31.2891 H   0  0  0  0  0  0  0  0  0  0  0  0
   -4.4361  -19.9867   29.4976 H   0  0  0  0  0  0  0  0  0  0  0  0
   -3.2955  -19.5801   27.3489 H   0  0  0  0  0  0  0  0  0  0  0  0
   -2.0065  -17.5329   26.9954 H   0  0  0  0  0  0  0  0  0  0  0  0
   -0.2651   -6.9548   30.4506 H   0  0  0  0  0  0  0  0  0  0  0  0
   -1.0082   -8.2604   29.6711 H   0  0  0  0  0  0  0  0  0  0  0  0
   -2.7130   -6.5392   30.3148 H   0  0  0  0  0  0  0  0  0  0  0  0
   -2.5145   -6.6834   28.5233 H   0  0  0  0  0  0  0  0  0  0  0  0
   -1.0290   -4.8180   30.4274 H   0  0  0  0  0  0  0  0  0  0  0  0
   -1.9857   -4.2633   29.0714 H   0  0  0  0  0  0  0  0  0  0  0  0
   -0.5871   -5.3236   27.4537 H   0  0  0  0  0  0  0  0  0  0  0  0
    0.5446   -2.8979   27.2003 H   0  0  0  0  0  0  0  0  0  0  0  0
    2.7534   -1.7207   27.8482 H   0  0  0  0  0  0  0  0  0  0  0  0
    1.8961   -5.2344   30.5869 H   0  0  0  0  0  0  0  0  0  0  0  0
  1  2  2  0
  2  3  1  0
  3  4  1  0
  4  5  1  0
  5  6  1  0
  6  7  1  0
  7  8  1  0
  8  9  2  0
  9 10  1  0
 10 11  2  0
 11 12  1  0
 12 13  2  0
 13 14  1  0
 14 15  2  0
  2 16  1  0
 16 17  1  0
 17 18  1  0
 18 19  1  0
 19 20  1  0
 20 21  1  0
 21 22  1  0
 22 23  2  0
 23 24  1  0
 24 25  1  0
 15  7  1  0
 20 16  1  0
 25 21  2  0
 15 10  1  0
  3 26  1  0
  4 27  1  0
  4 28  1  0
  5 29  1  0
  5 30  1  0
  6 31  1  0
  6 32  1  0
  8 33  1  0
 11 34  1  0
 12 35  1  0
 13 36  1  0
 14 37  1  0
 17 38  1  0
 17 39  1  0
 18 40  1  0
 18 41  1  0
 19 42  1  0
 19 43  1  0
 20 44  1  0
 22 45  1  0
 23 46  1  0
 25 47  1  0
M  END
>  <Energy>  (294) 
447.01107746562587

>  <compound_id>  (294) 
4910

>  <target_id>  (294) 
1

>  <reference_id>  (294) 
66

>  <inspiration_ids>  (294) 
[94, 66]

>  <energy_score>  (294) 
454.80226497561506

>  <distance_score>  (294) 
14.854580397856523

>  <path>  (294) 
/opt/xchem-fragalysis-2/maxwin/BulkDock/SCRATCH/511016/C4910-P66/C4910-P66.minimised.mol

>  <scratch_subdir>  (294) 
/opt/xchem-fragalysis-2/maxwin/BulkDock/SCRATCH/511016/C4910-P66

>  <fragmenstein_runtime>  (294) 
27.64961075782776

>  <fragmenstein_outcome>  (294) 
too moved

>  <fragmenstein_mode>  (294) 
expansion

>  <fragmenstein_error>  (294) 


$$$$
C4911-P94
     RDKit          3D

 41 44  0  0  0  0  0  0  0  0999 V2000
    3.5922  -17.4252   29.6858 O   0  0  0  0  0  0  0  0  0  0  0  0
    3.3017  -17.5659   28.5329 C   0  0  0  0  0  0  0  0  0  0  0  0
    2.1461  -18.2191   27.9150 N   0  0  0  0  0  0  0  0  0  0  0  0
    1.0132  -19.0045   28.5217 C   0  0  0  0  0  0  0  0  0  0  0  0
   -0.0544  -18.3609   29.4784 C   0  0  0  0  0  0  0  0  0  0  0  0
   -1.5866  -18.6499   29.2518 C   0  0  0  0  0  0  0  0  0  0  0  0
   -2.0879  -20.0079   29.1611 N   0  0  0  0  0  0  0  0  0  0  0  0
   -1.6694  -21.0932   29.8804 C   0  0  0  0  0  0  0  0  0  0  0  0
   -2.1457  -22.2180   29.3892 N   0  0  0  0  0  0  0  0  0  0  0  0
   -2.9787  -21.8351   28.3688 C   0  0  0  0  0  0  0  0  0  0  0  0
   -3.7095  -22.6215   27.4653 C   0  0  0  0  0  0  0  0  0  0  0  0
   -4.5994  -22.0025   26.5798 C   0  0  0  0  0  0  0  0  0  0  0  0
   -4.7270  -20.6136   26.5719 C   0  0  0  0  0  0  0  0  0  0  0  0
   -3.9557  -19.8058   27.4186 C   0  0  0  0  0  0  0  0  0  0  0  0
   -3.0665  -20.4495   28.2898 C   0  0  0  0  0  0  0  0  0  0  0  0
    4.3441  -17.0791   27.4656 C   0  0  0  0  0  0  0  0  0  0  0  0
    4.8099  -17.9129   26.4627 C   0  0  0  0  0  0  0  0  0  0  0  0
    6.0115  -17.1486   25.4995 S   0  0  0  0  0  0  0  0  0  0  0  0
    5.8924  -15.6828   26.4202 C   0  0  0  0  0  0  0  0  0  0  0  0
    6.8365  -14.3582   26.0237 C   0  0  0  0  0  0  0  0  0  0  0  0
    6.7936  -13.0662   26.6412 C   0  0  0  0  0  0  0  0  0  0  0  0
    7.6277  -12.1420   26.0348 C   0  0  0  0  0  0  0  0  0  0  0  0
    8.5395  -12.8327   24.7649 S   0  0  0  0  0  0  0  0  0  0  0  0
    7.7881  -14.3642   25.0108 C   0  0  0  0  0  0  0  0  0  0  0  0
    5.0070  -15.7810   27.4199 N   0  0  0  0  0  0  0  0  0  0  0  0
    2.1825  -18.0784   26.9175 H   0  0  0  0  0  0  0  0  0  0  0  0
    1.4938  -19.8289   29.0608 H   0  0  0  0  0  0  0  0  0  0  0  0
    0.4917  -19.4398   27.6621 H   0  0  0  0  0  0  0  0  0  0  0  0
    0.0768  -17.2719   29.4469 H   0  0  0  0  0  0  0  0  0  0  0  0
    0.1985  -18.6642   30.5025 H   0  0  0  0  0  0  0  0  0  0  0  0
   -2.1540  -18.1742   30.0610 H   0  0  0  0  0  0  0  0  0  0  0  0
   -1.8656  -18.1421   28.3209 H   0  0  0  0  0  0  0  0  0  0  0  0
   -0.9832  -21.0157   30.7141 H   0  0  0  0  0  0  0  0  0  0  0  0
   -3.5675  -23.6921   27.4806 H   0  0  0  0  0  0  0  0  0  0  0  0
   -5.1787  -22.6079   25.8869 H   0  0  0  0  0  0  0  0  0  0  0  0
   -5.4044  -20.1361   25.8699 H   0  0  0  0  0  0  0  0  0  0  0  0
   -4.0319  -18.7248   27.3814 H   0  0  0  0  0  0  0  0  0  0  0  0
    4.5324  -18.9386   26.2672 H   0  0  0  0  0  0  0  0  0  0  0  0
    6.1513  -12.8305   27.4812 H   0  0  0  0  0  0  0  0  0  0  0  0
    7.7583  -11.1000   26.2920 H   0  0  0  0  0  0  0  0  0  0  0  0
    8.0713  -15.1859   24.3684 H   0  0  0  0  0  0  0  0  0  0  0  0
  1  2  2  0
  2  3  1  0
  3  4  1  0
  4  5  1  0
  5  6  1  0
  6  7  1  0
  7  8  1  0
  8  9  2  0
  9 10  1  0
 10 11  2  0
 11 12  1  0
 12 13  2  0
 13 14  1  0
 14 15  2  0
  2 16  1  0
 16 17  2  0
 17 18  1  0
 18 19  1  0
 19 20  1  0
 20 21  1  0
 21 22  2  0
 22 23  1  0
 23 24  1  0
 19 25  2  0
 15  7  1  0
 25 16  1  0
 15 10  1  0
 24 20  2  0
  3 26  1  0
  4 27  1  0
  4 28  1  0
  5 29  1  0
  5 30  1  0
  6 31  1  0
  6 32  1  0
  8 33  1  0
 11 34  1  0
 12 35  1  0
 13 36  1  0
 14 37  1  0
 17 38  1  0
 21 39  1  0
 22 40  1  0
 24 41  1  0
M  END
>  <Energy>  (295) 
66.51755290553146

>  <compound_id>  (295) 
4911

>  <target_id>  (295) 
1

>  <reference_id>  (295) 
94

>  <inspiration_ids>  (295) 
[94, 66]

>  <energy_score>  (295) 
-16.140072294285005

>  <distance_score>  (295) 
13.214572979784124

>  <path>  (295) 
/opt/xchem-fragalysis-2/maxwin/BulkDock/SCRATCH/511016/C4911-P94/C4911-P94.minimised.mol

>  <scratch_subdir>  (295) 
/opt/xchem-fragalysis-2/maxwin/BulkDock/SCRATCH/511016/C4911-P94

>  <fragmenstein_runtime>  (295) 
32.67147946357727

>  <fragmenstein_outcome>  (295) 
too moved

>  <fragmenstein_mode>  (295) 
expansion

>  <fragmenstein_error>  (295) 


$$$$
C4911-P66
     RDKit          3D

 41 44  0  0  0  0  0  0  0  0999 V2000
    1.8601  -12.8697   25.2507 O   0  0  0  0  0  0  0  0  0  0  0  0
    1.8023  -12.9794   24.0941 C   0  0  0  0  0  0  0  0  0  0  0  0
    0.3917  -14.0552   23.4033 N   0  0  0  0  0  0  0  0  0  0  0  0
   -1.0023  -14.8754   24.2095 C   0  0  0  0  0  0  0  0  0  0  0  0
   -2.2891  -16.0216   23.5926 C   0  0  0  0  0  0  0  0  0  0  0  0
   -3.0475  -17.1887   24.5623 C   0  0  0  0  0  0  0  0  0  0  0  0
   -2.9094  -18.6505   24.5752 N   0  0  0  0  0  0  0  0  0  0  0  0
   -1.8222  -19.3937   24.2178 C   0  0  0  0  0  0  0  0  0  0  0  0
   -1.8567  -20.6223   24.6873 N   0  0  0  0  0  0  0  0  0  0  0  0
   -3.0378  -20.7304   25.3549 C   0  0  0  0  0  0  0  0  0  0  0  0
   -3.5536  -21.8331   26.0607 C   0  0  0  0  0  0  0  0  0  0  0  0
   -4.7983  -21.7190   26.6663 C   0  0  0  0  0  0  0  0  0  0  0  0
   -5.5159  -20.5399   26.5242 C   0  0  0  0  0  0  0  0  0  0  0  0
   -5.0492  -19.4597   25.7690 C   0  0  0  0  0  0  0  0  0  0  0  0
   -3.7620  -19.5424   25.2431 C   0  0  0  0  0  0  0  0  0  0  0  0
    3.0631  -11.8910   23.1499 C   0  0  0  0  0  0  0  0  0  0  0  0
    3.1820  -10.3737   22.9322 C   0  0  0  0  0  0  0  0  0  0  0  0
    4.2294   -8.3264   23.0258 S   0  0  0  0  0  0  0  0  0  0  0  0
    5.1289  -10.4614   22.8404 C   0  0  0  0  0  0  0  0  0  0  0  0
    6.9467  -10.7894   23.2099 C   0  0  0  0  0  0  0  0  0  0  0  0
    7.7779  -10.0577   24.1308 C   0  0  0  0  0  0  0  0  0  0  0  0
    9.1216  -10.2566   23.8888 C   0  0  0  0  0  0  0  0  0  0  0  0
    9.3957  -11.3391   22.5934 S   0  0  0  0  0  0  0  0  0  0  0  0
    7.7112  -11.5688   22.3516 C   0  0  0  0  0  0  0  0  0  0  0  0
    4.1469  -11.5538   22.2487 N   0  0  0  0  0  0  0  0  0  0  0  0
    0.5071  -14.1433   22.3874 H   0  0  0  0  0  0  0  0  0  0  0  0
   -1.0813  -13.9188   24.7132 H   0  0  0  0  0  0  0  0  0  0  0  0
   -1.6820  -14.7905   25.1091 H   0  0  0  0  0  0  0  0  0  0  0  0
   -3.1524  -15.3951   23.4504 H   0  0  0  0  0  0  0  0  0  0  0  0
   -2.0118  -16.4179   22.6081 H   0  0  0  0  0  0  0  0  0  0  0  0
   -2.8813  -16.9390   25.6015 H   0  0  0  0  0  0  0  0  0  0  0  0
   -4.1152  -17.0427   24.3492 H   0  0  0  0  0  0  0  0  0  0  0  0
   -1.0047  -19.0121   23.6260 H   0  0  0  0  0  0  0  0  0  0  0  0
   -2.9727  -22.7460   26.1305 H   0  0  0  0  0  0  0  0  0  0  0  0
   -5.2093  -22.5528   27.2239 H   0  0  0  0  0  0  0  0  0  0  0  0
   -6.4980  -20.4599   26.9677 H   0  0  0  0  0  0  0  0  0  0  0  0
   -5.6936  -18.6188   25.5801 H   0  0  0  0  0  0  0  0  0  0  0  0
    2.4588   -9.6644   22.0767 H   0  0  0  0  0  0  0  0  0  0  0  0
    7.4059   -9.3565   24.8680 H   0  0  0  0  0  0  0  0  0  0  0  0
    9.9584   -9.8050   24.4042 H   0  0  0  0  0  0  0  0  0  0  0  0
    7.3730  -12.1685   21.5170 H   0  0  0  0  0  0  0  0  0  0  0  0
  1  2  2  0
  2  3  1  0
  3  4  1  0
  4  5  1  0
  5  6  1  0
  6  7  1  0
  7  8  1  0
  8  9  2  0
  9 10  1  0
 10 11  2  0
 11 12  1  0
 12 13  2  0
 13 14  1  0
 14 15  2  0
  2 16  1  0
 16 17  2  0
 17 18  1  0
 18 19  1  0
 19 20  1  0
 20 21  1  0
 21 22  2  0
 22 23  1  0
 23 24  1  0
 19 25  2  0
 15  7  1  0
 25 16  1  0
 15 10  1  0
 24 20  2  0
  3 26  1  0
  4 27  1  0
  4 28  1  0
  5 29  1  0
  5 30  1  0
  6 31  1  0
  6 32  1  0
  8 33  1  0
 11 34  1  0
 12 35  1  0
 13 36  1  0
 14 37  1  0
 17 38  1  0
 21 39  1  0
 22 40  1  0
 24 41  1  0
M  END
>  <Energy>  (296) 
772.455340197635

>  <compound_id>  (296) 
4911

>  <target_id>  (296) 
1

>  <reference_id>  (296) 
66

>  <inspiration_ids>  (296) 
[94, 66]

>  <energy_score>  (296) 
689.7977149977934

>  <distance_score>  (296) 
12.279395067540502

>  <path>  (296) 
/opt/xchem-fragalysis-2/maxwin/BulkDock/SCRATCH/511016/C4911-P66/C4911-P66.minimised.mol

>  <scratch_subdir>  (296) 
/opt/xchem-fragalysis-2/maxwin/BulkDock/SCRATCH/511016/C4911-P66

>  <fragmenstein_runtime>  (296) 
25.353654861450195

>  <fragmenstein_outcome>  (296) 
too moved

>  <fragmenstein_mode>  (296) 
expansion

>  <fragmenstein_error>  (296) 


$$$$
C4912-P94
     RDKit          3D

 36 38  0  0  0  0  0  0  0  0999 V2000
   -3.5298  -20.4150   31.3933 C   0  0  0  0  0  0  0  0  0  0  0  0
   -2.3821  -20.6405   30.5385 N   0  0  0  0  0  0  0  0  0  0  0  0
   -2.4030  -21.0465   29.2410 C   0  0  0  0  0  0  0  0  0  0  0  0
   -1.2152  -20.9306   28.6813 N   0  0  0  0  0  0  0  0  0  0  0  0
   -0.3627  -20.3784   29.6285 C   0  0  0  0  0  0  0  0  0  0  0  0
    0.9915  -19.8520   29.5637 C   0  0  0  0  0  0  0  0  0  0  0  0
    1.9204  -19.8931   28.3366 C   0  0  0  0  0  0  0  0  0  0  0  0
    1.8106  -20.9294   27.7389 O   0  0  0  0  0  0  0  0  0  0  0  0
    2.8497  -18.7536   28.1289 N   0  0  0  0  0  0  0  0  0  0  0  0
    4.0008  -18.5872   27.1772 C   0  0  0  0  0  0  0  0  0  0  0  0
    5.1303  -19.5466   27.6485 C   0  0  0  0  0  0  0  0  0  0  0  0
    5.5886  -19.1958   28.9614 O   0  0  0  0  0  0  0  0  0  0  0  0
    4.6350  -17.1845   26.8170 C   0  0  0  0  0  0  0  0  0  0  0  0
    4.7768  -15.9971   27.6231 C   0  0  0  0  0  0  0  0  0  0  0  0
    5.4708  -14.9702   27.0009 C   0  0  0  0  0  0  0  0  0  0  0  0
    5.9857  -15.3899   25.4304 S   0  0  0  0  0  0  0  0  0  0  0  0
    5.2979  -16.9536   25.6011 C   0  0  0  0  0  0  0  0  0  0  0  0
    1.5300  -19.4105   30.7855 C   0  0  0  0  0  0  0  0  0  0  0  0
    0.7948  -19.4186   31.9798 C   0  0  0  0  0  0  0  0  0  0  0  0
   -0.5259  -19.8497   32.0329 C   0  0  0  0  0  0  0  0  0  0  0  0
   -1.0826  -20.2992   30.8400 C   0  0  0  0  0  0  0  0  0  0  0  0
   -3.7065  -21.3292   31.9589 H   0  0  0  0  0  0  0  0  0  0  0  0
   -3.3132  -19.5926   32.0801 H   0  0  0  0  0  0  0  0  0  0  0  0
   -4.3720  -20.1174   30.7732 H   0  0  0  0  0  0  0  0  0  0  0  0
   -3.3002  -21.3730   28.7342 H   0  0  0  0  0  0  0  0  0  0  0  0
    2.7187  -18.0798   28.8699 H   0  0  0  0  0  0  0  0  0  0  0  0
    3.6196  -18.9920   26.2292 H   0  0  0  0  0  0  0  0  0  0  0  0
    5.9880  -19.5181   26.9681 H   0  0  0  0  0  0  0  0  0  0  0  0
    4.7603  -20.5768   27.6931 H   0  0  0  0  0  0  0  0  0  0  0  0
    6.2597  -19.8573   29.2029 H   0  0  0  0  0  0  0  0  0  0  0  0
    4.3953  -15.9116   28.6332 H   0  0  0  0  0  0  0  0  0  0  0  0
    5.7048  -13.9967   27.4076 H   0  0  0  0  0  0  0  0  0  0  0  0
    5.4014  -17.6541   24.7833 H   0  0  0  0  0  0  0  0  0  0  0  0
    2.5686  -19.0862   30.8321 H   0  0  0  0  0  0  0  0  0  0  0  0
    1.2717  -19.0668   32.8940 H   0  0  0  0  0  0  0  0  0  0  0  0
   -1.0901  -19.8062   32.9584 H   0  0  0  0  0  0  0  0  0  0  0  0
  1  2  1  0
  2  3  1  0
  3  4  2  0
  4  5  1  0
  5  6  2  0
  6  7  1  0
  7  8  2  0
  7  9  1  0
  9 10  1  0
 10 11  1  0
 11 12  1  0
 10 13  1  0
 13 14  1  0
 14 15  2  0
 15 16  1  0
 16 17  1  0
  6 18  1  0
 18 19  2  0
 19 20  1  0
 20 21  2  0
 21  2  1  0
 21  5  1  0
 17 13  2  0
  1 22  1  0
  1 23  1  0
  1 24  1  0
  3 25  1  0
  9 26  1  0
 10 27  1  0
 11 28  1  0
 11 29  1  0
 12 30  1  0
 14 31  1  0
 15 32  1  0
 17 33  1  0
 18 34  1  0
 19 35  1  0
 20 36  1  0
M  END
>  <Energy>  (297) 
77.956265739252501

>  <compound_id>  (297) 
4912

>  <target_id>  (297) 
1

>  <reference_id>  (297) 
94

>  <inspiration_ids>  (297) 
[94, 66]

>  <energy_score>  (297) 
-12.33327108810613

>  <distance_score>  (297) 
15.459774729840465

>  <path>  (297) 
/opt/xchem-fragalysis-2/maxwin/BulkDock/SCRATCH/511016/C4912-P94/C4912-P94.minimised.mol

>  <scratch_subdir>  (297) 
/opt/xchem-fragalysis-2/maxwin/BulkDock/SCRATCH/511016/C4912-P94

>  <fragmenstein_runtime>  (297) 
18.871188402175903

>  <fragmenstein_outcome>  (297) 
too moved

>  <fragmenstein_mode>  (297) 
expansion

>  <fragmenstein_error>  (297) 


$$$$
C4912-P66
     RDKit          3D

 36 38  0  0  0  0  0  0  0  0999 V2000
   -3.8315  -21.0093   28.3340 C   0  0  0  0  0  0  0  0  0  0  0  0
   -3.5176  -19.6228   28.1590 N   0  0  0  0  0  0  0  0  0  0  0  0
   -4.3014  -18.5559   28.4515 C   0  0  0  0  0  0  0  0  0  0  0  0
   -3.7050  -17.4319   28.0297 N   0  0  0  0  0  0  0  0  0  0  0  0
   -2.3864  -17.7404   27.5693 C   0  0  0  0  0  0  0  0  0  0  0  0
   -1.1750  -16.8669   27.5503 C   0  0  0  0  0  0  0  0  0  0  0  0
   -1.0167  -14.8522   27.7861 C   0  0  0  0  0  0  0  0  0  0  0  0
   -1.8117  -14.5066   28.6425 O   0  0  0  0  0  0  0  0  0  0  0  0
    0.2869  -13.4604   26.9706 N   0  0  0  0  0  0  0  0  0  0  0  0
    0.6579  -11.4373   27.4483 C   0  0  0  0  0  0  0  0  0  0  0  0
    2.0554  -10.7442   28.5141 C   0  0  0  0  0  0  0  0  0  0  0  0
    1.6084  -10.1061   29.7311 O   0  0  0  0  0  0  0  0  0  0  0  0
   -0.3171   -9.8418   27.6907 C   0  0  0  0  0  0  0  0  0  0  0  0
   -1.7020   -9.5749   27.9714 C   0  0  0  0  0  0  0  0  0  0  0  0
   -2.0493   -8.2420   27.8223 C   0  0  0  0  0  0  0  0  0  0  0  0
   -0.7137   -7.2286   27.5606 S   0  0  0  0  0  0  0  0  0  0  0  0
    0.3235   -8.5611   27.7664 C   0  0  0  0  0  0  0  0  0  0  0  0
    0.0988  -17.7687   27.7133 C   0  0  0  0  0  0  0  0  0  0  0  0
    0.1397  -19.1202   28.0404 C   0  0  0  0  0  0  0  0  0  0  0  0
   -1.0605  -19.7677   28.2532 C   0  0  0  0  0  0  0  0  0  0  0  0
   -2.2526  -19.1481   27.8715 C   0  0  0  0  0  0  0  0  0  0  0  0
   -3.0799  -21.6235   27.8283 H   0  0  0  0  0  0  0  0  0  0  0  0
   -4.7804  -21.2219   27.8476 H   0  0  0  0  0  0  0  0  0  0  0  0
   -3.7882  -21.2103   29.4024 H   0  0  0  0  0  0  0  0  0  0  0  0
   -5.2823  -18.6195   28.9018 H   0  0  0  0  0  0  0  0  0  0  0  0
    0.9316  -13.9267   26.3420 H   0  0  0  0  0  0  0  0  0  0  0  0
    0.2207  -11.3224   28.4219 H   0  0  0  0  0  0  0  0  0  0  0  0
    2.5681   -9.9693   27.9385 H   0  0  0  0  0  0  0  0  0  0  0  0
    2.7697  -11.4636   28.9201 H   0  0  0  0  0  0  0  0  0  0  0  0
    0.9438  -10.6819   30.1577 H   0  0  0  0  0  0  0  0  0  0  0  0
   -2.4614  -10.3107   28.1910 H   0  0  0  0  0  0  0  0  0  0  0  0
   -3.0426   -7.8191   27.8942 H   0  0  0  0  0  0  0  0  0  0  0  0
    1.3762   -8.3184   27.7747 H   0  0  0  0  0  0  0  0  0  0  0  0
    1.0674  -17.2681   27.8567 H   0  0  0  0  0  0  0  0  0  0  0  0
    1.0841  -19.5902   28.2998 H   0  0  0  0  0  0  0  0  0  0  0  0
   -1.0693  -20.7441   28.7338 H   0  0  0  0  0  0  0  0  0  0  0  0
  1  2  1  0
  2  3  1  0
  3  4  2  0
  4  5  1  0
  5  6  2  0
  6  7  1  0
  7  8  2  0
  7  9  1  0
  9 10  1  0
 10 11  1  0
 11 12  1  0
 10 13  1  0
 13 14  1  0
 14 15  2  0
 15 16  1  0
 16 17  1  0
  6 18  1  0
 18 19  2  0
 19 20  1  0
 20 21  2  0
 21  2  1  0
 21  5  1  0
 17 13  2  0
  1 22  1  0
  1 23  1  0
  1 24  1  0
  3 25  1  0
  9 26  1  0
 10 27  1  0
 11 28  1  0
 11 29  1  0
 12 30  1  0
 14 31  1  0
 15 32  1  0
 17 33  1  0
 18 34  1  0
 19 35  1  0
 20 36  1  0
M  END
>  <Energy>  (298) 
637.05537566417968

>  <compound_id>  (298) 
4912

>  <target_id>  (298) 
1

>  <reference_id>  (298) 
66

>  <inspiration_ids>  (298) 
[94, 66]

>  <energy_score>  (298) 
546.7658388368071

>  <distance_score>  (298) 
15.169675810175654

>  <path>  (298) 
/opt/xchem-fragalysis-2/maxwin/BulkDock/SCRATCH/511016/C4912-P66/C4912-P66.minimised.mol

>  <scratch_subdir>  (298) 
/opt/xchem-fragalysis-2/maxwin/BulkDock/SCRATCH/511016/C4912-P66

>  <fragmenstein_runtime>  (298) 
16.508901834487915

>  <fragmenstein_outcome>  (298) 
too moved

>  <fragmenstein_mode>  (298) 
expansion

>  <fragmenstein_error>  (298) 


$$$$
C4913-P94
     RDKit          3D

 37 39  0  0  0  0  0  0  0  0999 V2000
   -5.3571  -18.9828   27.2330 O   0  0  0  0  0  0  0  0  0  0  0  0
   -6.3199  -19.5306   27.4814 C   0  0  0  0  0  0  0  0  0  0  0  0
   -7.6492  -18.7049   27.9872 N   0  0  0  0  0  0  0  0  0  0  0  0
   -7.9489  -17.0980   28.1268 C   0  0  0  0  0  0  0  0  0  0  0  0
   -8.6437  -16.1464   26.7982 C   0  0  0  0  0  0  0  0  0  0  0  0
  -10.0760  -16.1940   27.0073 O   0  0  0  0  0  0  0  0  0  0  0  0
   -8.2976  -14.6053   26.3476 C   0  0  0  0  0  0  0  0  0  0  0  0
   -7.9129  -13.4717   27.1692 C   0  0  0  0  0  0  0  0  0  0  0  0
   -7.5584  -12.3436   26.4459 C   0  0  0  0  0  0  0  0  0  0  0  0
   -7.7380  -12.5724   24.7642 S   0  0  0  0  0  0  0  0  0  0  0  0
   -8.2445  -14.1984   25.0099 C   0  0  0  0  0  0  0  0  0  0  0  0
   -6.1254  -21.3683   27.0568 C   0  0  0  0  0  0  0  0  0  0  0  0
   -6.9152  -22.3027   26.5305 C   0  0  0  0  0  0  0  0  0  0  0  0
   -6.5347  -22.9498   25.2772 C   0  0  0  0  0  0  0  0  0  0  0  0
   -5.2468  -23.2204   24.9805 C   0  0  0  0  0  0  0  0  0  0  0  0
   -4.7095  -23.3157   26.2345 C   0  0  0  0  0  0  0  0  0  0  0  0
   -3.6073  -24.1271   26.6810 N   0  0  0  0  0  0  0  0  0  0  0  0
   -3.3575  -23.8658   27.9853 C   0  0  0  0  0  0  0  0  0  0  0  0
   -2.2571  -24.4674   28.7649 C   0  0  0  0  0  0  0  0  0  0  0  0
   -1.1384  -23.5955   28.6085 O   0  0  0  0  0  0  0  0  0  0  0  0
   -4.1178  -22.8497   28.2904 N   0  0  0  0  0  0  0  0  0  0  0  0
   -5.0815  -22.4420   27.2803 C   0  0  0  0  0  0  0  0  0  0  0  0
   -8.3483  -19.3607   28.2325 H   0  0  0  0  0  0  0  0  0  0  0  0
   -8.7795  -17.0767   28.8084 H   0  0  0  0  0  0  0  0  0  0  0  0
   -7.1072  -16.6262   28.6268 H   0  0  0  0  0  0  0  0  0  0  0  0
   -8.4978  -16.7330   25.8933 H   0  0  0  0  0  0  0  0  0  0  0  0
  -10.2938  -15.4137   27.5474 H   0  0  0  0  0  0  0  0  0  0  0  0
   -7.8538  -13.5072   28.2512 H   0  0  0  0  0  0  0  0  0  0  0  0
   -7.2216  -11.3934   26.8368 H   0  0  0  0  0  0  0  0  0  0  0  0
   -8.4776  -14.8100   24.1494 H   0  0  0  0  0  0  0  0  0  0  0  0
   -7.7354  -22.6384   27.1383 H   0  0  0  0  0  0  0  0  0  0  0  0
   -7.2152  -23.4608   24.6025 H   0  0  0  0  0  0  0  0  0  0  0  0
   -4.9289  -23.7960   24.1229 H   0  0  0  0  0  0  0  0  0  0  0  0
   -3.0598  -24.7156   26.0706 H   0  0  0  0  0  0  0  0  0  0  0  0
   -2.5092  -24.5430   29.8265 H   0  0  0  0  0  0  0  0  0  0  0  0
   -1.9846  -25.4582   28.3911 H   0  0  0  0  0  0  0  0  0  0  0  0
   -1.4330  -22.7546   29.0155 H   0  0  0  0  0  0  0  0  0  0  0  0
  1  2  2  0
  2  3  1  0
  3  4  1  0
  4  5  1  0
  5  6  1  0
  5  7  1  0
  7  8  1  0
  8  9  2  0
  9 10  1  0
 10 11  1  0
  2 12  1  0
 12 13  2  0
 13 14  1  0
 14 15  2  0
 15 16  1  0
 16 17  1  0
 17 18  1  0
 18 19  1  0
 19 20  1  0
 18 21  2  0
 21 22  1  0
 11  7  2  0
 22 12  1  0
 22 16  2  0
  3 23  1  0
  4 24  1  0
  4 25  1  0
  5 26  1  0
  6 27  1  0
  8 28  1  0
  9 29  1  0
 11 30  1  0
 13 31  1  0
 14 32  1  0
 15 33  1  0
 17 34  1  0
 19 35  1  0
 19 36  1  0
 20 37  1  0
M  END
>  <Energy>  (299) 
306.12147268544499

>  <compound_id>  (299) 
4913

>  <target_id>  (299) 
1

>  <reference_id>  (299) 
94

>  <inspiration_ids>  (299) 
[94, 66]

>  <energy_score>  (299) 
219.61634003324502

>  <distance_score>  (299) 
18.250672465150483

>  <path>  (299) 
/opt/xchem-fragalysis-2/maxwin/BulkDock/SCRATCH/511016/C4913-P94/C4913-P94.minimised.mol

>  <scratch_subdir>  (299) 
/opt/xchem-fragalysis-2/maxwin/BulkDock/SCRATCH/511016/C4913-P94

>  <fragmenstein_runtime>  (299) 
25.079055309295654

>  <fragmenstein_outcome>  (299) 
too moved

>  <fragmenstein_mode>  (299) 
expansion

>  <fragmenstein_error>  (299) 


$$$$
C4913-P66
     RDKit          3D

 37 39  0  0  0  0  0  0  0  0999 V2000
   -2.6721  -17.4900   25.7262 O   0  0  0  0  0  0  0  0  0  0  0  0
   -3.1130  -16.9629   26.6962 C   0  0  0  0  0  0  0  0  0  0  0  0
   -2.3855  -15.1007   26.8487 N   0  0  0  0  0  0  0  0  0  0  0  0
   -1.2810  -13.9215   25.5854 C   0  0  0  0  0  0  0  0  0  0  0  0
    0.4510  -12.8751   26.3501 C   0  0  0  0  0  0  0  0  0  0  0  0
    1.5431  -13.7371   26.5259 O   0  0  0  0  0  0  0  0  0  0  0  0
    0.7329  -11.1465   27.4035 C   0  0  0  0  0  0  0  0  0  0  0  0
    1.8948  -10.5398   28.2797 C   0  0  0  0  0  0  0  0  0  0  0  0
    1.9102   -9.1842   28.5276 C   0  0  0  0  0  0  0  0  0  0  0  0
    0.4020   -8.5344   28.1771 S   0  0  0  0  0  0  0  0  0  0  0  0
   -0.2353  -10.1212   27.8582 C   0  0  0  0  0  0  0  0  0  0  0  0
   -4.7383  -18.1783   27.6012 C   0  0  0  0  0  0  0  0  0  0  0  0
   -5.6334  -19.2320   26.4390 C   0  0  0  0  0  0  0  0  0  0  0  0
   -5.9148  -19.8875   25.0374 C   0  0  0  0  0  0  0  0  0  0  0  0
   -5.5024  -21.1795   25.1247 C   0  0  0  0  0  0  0  0  0  0  0  0
   -5.6764  -21.2967   26.5143 C   0  0  0  0  0  0  0  0  0  0  0  0
   -6.2642  -22.3805   27.1349 N   0  0  0  0  0  0  0  0  0  0  0  0
   -7.4650  -21.9419   27.6030 C   0  0  0  0  0  0  0  0  0  0  0  0
   -8.9269  -22.9960   27.9831 C   0  0  0  0  0  0  0  0  0  0  0  0
   -8.9765  -24.1844   28.8249 O   0  0  0  0  0  0  0  0  0  0  0  0
   -7.2359  -20.4777   27.7681 N   0  0  0  0  0  0  0  0  0  0  0  0
   -5.8373  -19.7396   27.3922 C   0  0  0  0  0  0  0  0  0  0  0  0
   -2.6858  -14.7392   27.6817 H   0  0  0  0  0  0  0  0  0  0  0  0
   -2.0626  -13.1401   25.4738 H   0  0  0  0  0  0  0  0  0  0  0  0
   -1.1223  -14.5080   24.6428 H   0  0  0  0  0  0  0  0  0  0  0  0
    1.0621  -12.2624   25.6945 H   0  0  0  0  0  0  0  0  0  0  0  0
    2.3730  -13.2579   26.3811 H   0  0  0  0  0  0  0  0  0  0  0  0
    2.6682  -11.1089   28.7799 H   0  0  0  0  0  0  0  0  0  0  0  0
    2.6779   -8.6009   29.0189 H   0  0  0  0  0  0  0  0  0  0  0  0
   -1.3167  -10.1244   27.8090 H   0  0  0  0  0  0  0  0  0  0  0  0
   -4.4784  -19.9104   26.0682 H   0  0  0  0  0  0  0  0  0  0  0  0
   -6.3678  -19.3707   24.2037 H   0  0  0  0  0  0  0  0  0  0  0  0
   -5.5892  -21.9636   24.3912 H   0  0  0  0  0  0  0  0  0  0  0  0
   -6.1473  -23.2779   26.7218 H   0  0  0  0  0  0  0  0  0  0  0  0
   -9.7686  -22.3468   28.2843 H   0  0  0  0  0  0  0  0  0  0  0  0
   -9.2156  -23.5273   27.0699 H   0  0  0  0  0  0  0  0  0  0  0  0
   -9.9185  -24.4183   28.9179 H   0  0  0  0  0  0  0  0  0  0  0  0
  1  2  2  0
  2  3  1  0
  3  4  1  0
  4  5  1  0
  5  6  1  0
  5  7  1  0
  7  8  1  0
  8  9  2  0
  9 10  1  0
 10 11  1  0
  2 12  1  0
 12 13  2  0
 13 14  1  0
 14 15  2  0
 15 16  1  0
 16 17  1  0
 17 18  1  0
 18 19  1  0
 19 20  1  0
 18 21  2  0
 21 22  1  0
 11  7  2  0
 22 12  1  0
 22 16  2  0
  3 23  1  0
  4 24  1  0
  4 25  1  0
  5 26  1  0
  6 27  1  0
  8 28  1  0
  9 29  1  0
 11 30  1  0
 13 31  1  0
 14 32  1  0
 15 33  1  0
 17 34  1  0
 19 35  1  0
 19 36  1  0
 20 37  1  0
M  END
>  <Energy>  (300) 
1411.0201263585791

>  <compound_id>  (300) 
4913

>  <target_id>  (300) 
1

>  <reference_id>  (300) 
66

>  <inspiration_ids>  (300) 
[94, 66]

>  <energy_score>  (300) 
1324.514993706356

>  <distance_score>  (300) 
14.061453056263469

>  <path>  (300) 
/opt/xchem-fragalysis-2/maxwin/BulkDock/SCRATCH/511016/C4913-P66/C4913-P66.minimised.mol

>  <scratch_subdir>  (300) 
/opt/xchem-fragalysis-2/maxwin/BulkDock/SCRATCH/511016/C4913-P66

>  <fragmenstein_runtime>  (300) 
23.292412757873535

>  <fragmenstein_outcome>  (300) 
too moved

>  <fragmenstein_mode>  (300) 
expansion

>  <fragmenstein_error>  (300) 


$$$$
C4914-P94
     RDKit          3D

 33 35  0  0  0  0  0  0  0  0999 V2000
   -2.7418  -15.9720   24.5995 O   0  0  0  0  0  0  0  0  0  0  0  0
   -2.0313  -15.2991   25.2726 C   0  0  0  0  0  0  0  0  0  0  0  0
   -0.7333  -14.1951   24.7632 N   0  0  0  0  0  0  0  0  0  0  0  0
   -0.0482  -13.9102   23.3117 C   0  0  0  0  0  0  0  0  0  0  0  0
    1.9755  -13.4787   23.9376 C   0  0  0  0  0  0  0  0  0  0  0  0
    2.4979  -14.6437   23.1762 O   0  0  0  0  0  0  0  0  0  0  0  0
    3.7633  -13.1779   23.4107 C   0  0  0  0  0  0  0  0  0  0  0  0
    4.3837  -12.9222   22.0927 C   0  0  0  0  0  0  0  0  0  0  0  0
    5.7412  -12.6779   22.0813 C   0  0  0  0  0  0  0  0  0  0  0  0
    6.4156  -13.0922   23.5807 S   0  0  0  0  0  0  0  0  0  0  0  0
    4.8761  -13.6116   24.1660 C   0  0  0  0  0  0  0  0  0  0  0  0
   -2.2927  -15.7763   27.2596 C   0  0  0  0  0  0  0  0  0  0  0  0
   -2.0944  -17.4805   27.0616 C   0  0  0  0  0  0  0  0  0  0  0  0
   -2.5698  -18.8754   27.5158 C   0  0  0  0  0  0  0  0  0  0  0  0
   -1.8898  -19.9629   27.1733 F   0  0  0  0  0  0  0  0  0  0  0  0
   -3.7387  -19.0564   28.2108 C   0  0  0  0  0  0  0  0  0  0  0  0
   -4.1640  -17.8116   28.6417 C   0  0  0  0  0  0  0  0  0  0  0  0
   -4.9992  -17.6383   29.7539 N   0  0  0  0  0  0  0  0  0  0  0  0
   -4.4429  -16.6616   30.5181 C   0  0  0  0  0  0  0  0  0  0  0  0
   -3.5060  -16.0104   29.8555 N   0  0  0  0  0  0  0  0  0  0  0  0
   -3.4007  -16.5123   28.3865 C   0  0  0  0  0  0  0  0  0  0  0  0
   -0.3579  -13.6669   25.5701 H   0  0  0  0  0  0  0  0  0  0  0  0
   -0.2302  -14.5813   22.4754 H   0  0  0  0  0  0  0  0  0  0  0  0
   -0.2398  -12.9607   22.8136 H   0  0  0  0  0  0  0  0  0  0  0  0
    2.0056  -12.3625   23.7842 H   0  0  0  0  0  0  0  0  0  0  0  0
    2.6883  -14.2456   22.2951 H   0  0  0  0  0  0  0  0  0  0  0  0
    3.8617  -13.0050   21.1623 H   0  0  0  0  0  0  0  0  0  0  0  0
    6.3684  -12.4072   21.2433 H   0  0  0  0  0  0  0  0  0  0  0  0
    4.8494  -14.1407   25.1086 H   0  0  0  0  0  0  0  0  0  0  0  0
   -1.3875  -17.8323   26.2896 H   0  0  0  0  0  0  0  0  0  0  0  0
   -4.1200  -20.0079   28.5322 H   0  0  0  0  0  0  0  0  0  0  0  0
   -5.5883  -18.3714   30.1298 H   0  0  0  0  0  0  0  0  0  0  0  0
   -4.7373  -16.4804   31.5427 H   0  0  0  0  0  0  0  0  0  0  0  0
  1  2  2  0
  2  3  1  0
  3  4  1  0
  4  5  1  0
  5  6  1  0
  5  7  1  0
  7  8  1  0
  8  9  2  0
  9 10  1  0
 10 11  1  0
  2 12  1  0
 12 13  2  0
 13 14  1  0
 14 15  1  0
 14 16  2  0
 16 17  1  0
 17 18  1  0
 18 19  1  0
 19 20  2  0
 20 21  1  0
 11  7  2  0
 21 12  1  0
 21 17  2  0
  3 22  1  0
  4 23  1  0
  4 24  1  0
  5 25  1  0
  6 26  1  0
  8 27  1  0
  9 28  1  0
 11 29  1  0
 13 30  1  0
 16 31  1  0
 18 32  1  0
 19 33  1  0
M  END
>  <Energy>  (301) 
648.13552948670122

>  <compound_id>  (301) 
4914

>  <target_id>  (301) 
1

>  <reference_id>  (301) 
94

>  <inspiration_ids>  (301) 
[94, 66]

>  <energy_score>  (301) 
577.4136518584754

>  <distance_score>  (301) 
13.37987798818176

>  <path>  (301) 
/opt/xchem-fragalysis-2/maxwin/BulkDock/SCRATCH/511016/C4914-P94/C4914-P94.minimised.mol

>  <scratch_subdir>  (301) 
/opt/xchem-fragalysis-2/maxwin/BulkDock/SCRATCH/511016/C4914-P94

>  <fragmenstein_runtime>  (301) 
15.875108480453491

>  <fragmenstein_outcome>  (301) 
too moved

>  <fragmenstein_mode>  (301) 
expansion

>  <fragmenstein_error>  (301) 


$$$$
C4914-P66
     RDKit          3D

 33 35  0  0  0  0  0  0  0  0999 V2000
    0.0675  -15.4950   28.9496 O   0  0  0  0  0  0  0  0  0  0  0  0
   -0.5125  -14.8425   28.0840 C   0  0  0  0  0  0  0  0  0  0  0  0
    0.5489  -13.8205   26.7617 N   0  0  0  0  0  0  0  0  0  0  0  0
    2.2812  -13.7391   26.4860 C   0  0  0  0  0  0  0  0  0  0  0  0
    3.8908  -14.1032   25.3147 C   0  0  0  0  0  0  0  0  0  0  0  0
    3.5528  -14.1266   23.8948 O   0  0  0  0  0  0  0  0  0  0  0  0
    5.4181  -13.3676   25.2176 C   0  0  0  0  0  0  0  0  0  0  0  0
    6.3811  -13.1394   26.2614 C   0  0  0  0  0  0  0  0  0  0  0  0
    7.5058  -12.4522   25.8347 C   0  0  0  0  0  0  0  0  0  0  0  0
    7.4795  -12.1171   24.1630 S   0  0  0  0  0  0  0  0  0  0  0  0
    5.9644  -12.8968   24.0096 C   0  0  0  0  0  0  0  0  0  0  0  0
   -2.2451  -15.1423   28.1992 C   0  0  0  0  0  0  0  0  0  0  0  0
   -2.8043  -14.8131   29.7635 C   0  0  0  0  0  0  0  0  0  0  0  0
   -3.7862  -15.5343   30.5674 C   0  0  0  0  0  0  0  0  0  0  0  0
   -4.0403  -15.1101   31.8127 F   0  0  0  0  0  0  0  0  0  0  0  0
   -4.4874  -16.6467   30.0562 C   0  0  0  0  0  0  0  0  0  0  0  0
   -4.0423  -17.1770   28.7884 C   0  0  0  0  0  0  0  0  0  0  0  0
   -4.0871  -18.5546   28.4372 N   0  0  0  0  0  0  0  0  0  0  0  0
   -2.8875  -18.8479   27.7784 C   0  0  0  0  0  0  0  0  0  0  0  0
   -2.2742  -17.7438   27.3291 N   0  0  0  0  0  0  0  0  0  0  0  0
   -2.9023  -16.6056   27.9269 C   0  0  0  0  0  0  0  0  0  0  0  0
   -0.0828  -13.2746   26.1749 H   0  0  0  0  0  0  0  0  0  0  0  0
    2.7440  -13.7012   27.4774 H   0  0  0  0  0  0  0  0  0  0  0  0
    1.8460  -13.0688   25.7295 H   0  0  0  0  0  0  0  0  0  0  0  0
    4.2727  -15.0792   25.6624 H   0  0  0  0  0  0  0  0  0  0  0  0
    4.1308  -14.7955   23.4914 H   0  0  0  0  0  0  0  0  0  0  0  0
    6.2358  -13.4376   27.2929 H   0  0  0  0  0  0  0  0  0  0  0  0
    8.3508  -12.1433   26.4347 H   0  0  0  0  0  0  0  0  0  0  0  0
    5.5036  -12.9273   23.0311 H   0  0  0  0  0  0  0  0  0  0  0  0
   -2.2912  -14.0750   30.3697 H   0  0  0  0  0  0  0  0  0  0  0  0
   -5.1741  -17.2023   30.6880 H   0  0  0  0  0  0  0  0  0  0  0  0
   -4.6549  -19.2420   28.9090 H   0  0  0  0  0  0  0  0  0  0  0  0
   -2.5894  -19.8658   27.5801 H   0  0  0  0  0  0  0  0  0  0  0  0
  1  2  2  0
  2  3  1  0
  3  4  1  0
  4  5  1  0
  5  6  1  0
  5  7  1  0
  7  8  1  0
  8  9  2  0
  9 10  1  0
 10 11  1  0
  2 12  1  0
 12 13  2  0
 13 14  1  0
 14 15  1  0
 14 16  2  0
 16 17  1  0
 17 18  1  0
 18 19  1  0
 19 20  2  0
 20 21  1  0
 11  7  2  0
 21 12  1  0
 21 17  2  0
  3 22  1  0
  4 23  1  0
  4 24  1  0
  5 25  1  0
  6 26  1  0
  8 27  1  0
  9 28  1  0
 11 29  1  0
 13 30  1  0
 16 31  1  0
 18 32  1  0
 19 33  1  0
M  END
>  <Energy>  (302) 
434.32077321774443

>  <compound_id>  (302) 
4914

>  <target_id>  (302) 
1

>  <reference_id>  (302) 
66

>  <inspiration_ids>  (302) 
[94, 66]

>  <energy_score>  (302) 
363.59889558950124

>  <distance_score>  (302) 
13.669436645956614

>  <path>  (302) 
/opt/xchem-fragalysis-2/maxwin/BulkDock/SCRATCH/511016/C4914-P66/C4914-P66.minimised.mol

>  <scratch_subdir>  (302) 
/opt/xchem-fragalysis-2/maxwin/BulkDock/SCRATCH/511016/C4914-P66

>  <fragmenstein_runtime>  (302) 
22.7527174949646

>  <fragmenstein_outcome>  (302) 
too moved

>  <fragmenstein_mode>  (302) 
expansion

>  <fragmenstein_error>  (302) 


$$$$
C4915-P94
     RDKit          3D

 33 35  0  0  0  0  0  0  0  0999 V2000
    4.9140  -10.5382   30.6202 O   0  0  0  0  0  0  0  0  0  0  0  0
    4.8583  -10.8869   29.4772 C   0  0  0  0  0  0  0  0  0  0  0  0
    5.6821  -10.5156   28.3245 N   0  0  0  0  0  0  0  0  0  0  0  0
    6.7675   -9.5296   28.1936 C   0  0  0  0  0  0  0  0  0  0  0  0
    8.0426  -10.0014   28.9303 C   0  0  0  0  0  0  0  0  0  0  0  0
    9.0311   -8.9719   29.0064 O   0  0  0  0  0  0  0  0  0  0  0  0
    7.0662   -9.1275   26.7142 C   0  0  0  0  0  0  0  0  0  0  0  0
    6.8372   -7.8053   26.1596 C   0  0  0  0  0  0  0  0  0  0  0  0
    7.2835   -7.6562   24.8612 C   0  0  0  0  0  0  0  0  0  0  0  0
    7.9935   -9.0893   24.2712 S   0  0  0  0  0  0  0  0  0  0  0  0
    7.6898   -9.9102   25.7505 C   0  0  0  0  0  0  0  0  0  0  0  0
    3.6884  -11.7817   29.1282 C   0  0  0  0  0  0  0  0  0  0  0  0
    2.4422  -11.0044   28.7047 C   0  0  0  0  0  0  0  0  0  0  0  0
    1.5692  -11.4374   27.5196 C   0  0  0  0  0  0  0  0  0  0  0  0
    0.5474  -10.5756   27.4040 F   0  0  0  0  0  0  0  0  0  0  0  0
    1.6986  -13.0913   26.6878 C   0  0  0  0  0  0  0  0  0  0  0  0
    3.0382  -13.9423   27.5712 C   0  0  0  0  0  0  0  0  0  0  0  0
    3.4368  -15.2580   27.9311 N   0  0  0  0  0  0  0  0  0  0  0  0
    4.5971  -15.2646   28.6389 C   0  0  0  0  0  0  0  0  0  0  0  0
    4.9614  -14.0697   29.0106 N   0  0  0  0  0  0  0  0  0  0  0  0
    3.9722  -13.2249   28.5741 C   0  0  0  0  0  0  0  0  0  0  0  0
    5.4029  -11.0686   27.5252 H   0  0  0  0  0  0  0  0  0  0  0  0
    6.4115   -8.6260   28.7061 H   0  0  0  0  0  0  0  0  0  0  0  0
    8.4894  -10.8766   28.4456 H   0  0  0  0  0  0  0  0  0  0  0  0
    7.7994  -10.2900   29.9584 H   0  0  0  0  0  0  0  0  0  0  0  0
    9.3130   -8.7676   28.0972 H   0  0  0  0  0  0  0  0  0  0  0  0
    6.3815   -6.9929   26.7154 H   0  0  0  0  0  0  0  0  0  0  0  0
    7.2350   -6.7712   24.2409 H   0  0  0  0  0  0  0  0  0  0  0  0
    8.0139  -10.9383   25.8481 H   0  0  0  0  0  0  0  0  0  0  0  0
    2.2875  -10.0050   29.1115 H   0  0  0  0  0  0  0  0  0  0  0  0
    1.0462  -13.5533   26.0075 H   0  0  0  0  0  0  0  0  0  0  0  0
    2.8978  -16.1063   27.8382 H   0  0  0  0  0  0  0  0  0  0  0  0
    5.1064  -16.1834   28.9013 H   0  0  0  0  0  0  0  0  0  0  0  0
  1  2  2  0
  2  3  1  0
  3  4  1  0
  4  5  1  0
  5  6  1  0
  4  7  1  0
  7  8  1  0
  8  9  2  0
  9 10  1  0
 10 11  1  0
  2 12  1  0
 12 13  2  0
 13 14  1  0
 14 15  1  0
 14 16  2  0
 16 17  1  0
 17 18  1  0
 18 19  1  0
 19 20  2  0
 20 21  1  0
 11  7  2  0
 21 12  1  0
 21 17  2  0
  3 22  1  0
  4 23  1  0
  5 24  1  0
  5 25  1  0
  6 26  1  0
  8 27  1  0
  9 28  1  0
 11 29  1  0
 13 30  1  0
 16 31  1  0
 18 32  1  0
 19 33  1  0
M  END
>  <Energy>  (303) 
206.65548728744582

>  <compound_id>  (303) 
4915

>  <target_id>  (303) 
1

>  <reference_id>  (303) 
94

>  <inspiration_ids>  (303) 
[94, 66]

>  <energy_score>  (303) 
138.55739607392593

>  <distance_score>  (303) 
16.86569832996573

>  <path>  (303) 
/opt/xchem-fragalysis-2/maxwin/BulkDock/SCRATCH/511016/C4915-P94/C4915-P94.minimised.mol

>  <scratch_subdir>  (303) 
/opt/xchem-fragalysis-2/maxwin/BulkDock/SCRATCH/511016/C4915-P94

>  <fragmenstein_runtime>  (303) 
24.31325674057007

>  <fragmenstein_outcome>  (303) 
too moved

>  <fragmenstein_mode>  (303) 
expansion

>  <fragmenstein_error>  (303) 


$$$$
C4915-P66
     RDKit          3D

 33 35  0  0  0  0  0  0  0  0999 V2000
    0.3116  -14.4688   22.5565 O   0  0  0  0  0  0  0  0  0  0  0  0
   -0.4167  -13.7695   23.1457 C   0  0  0  0  0  0  0  0  0  0  0  0
   -0.4197  -11.7807   22.4910 N   0  0  0  0  0  0  0  0  0  0  0  0
    0.3962  -10.8051   21.0480 C   0  0  0  0  0  0  0  0  0  0  0  0
   -1.0031  -10.7097   20.0486 C   0  0  0  0  0  0  0  0  0  0  0  0
   -0.7770  -10.8786   18.6565 O   0  0  0  0  0  0  0  0  0  0  0  0
    1.0067   -9.1510   20.7096 C   0  0  0  0  0  0  0  0  0  0  0  0
    0.9732   -7.9463   21.5166 C   0  0  0  0  0  0  0  0  0  0  0  0
    1.6813   -6.8880   20.9760 C   0  0  0  0  0  0  0  0  0  0  0  0
    2.3429   -7.2628   19.4525 S   0  0  0  0  0  0  0  0  0  0  0  0
    1.6438   -8.8251   19.5008 C   0  0  0  0  0  0  0  0  0  0  0  0
   -1.5888  -14.9639   24.5627 C   0  0  0  0  0  0  0  0  0  0  0  0
   -2.1493  -14.5346   25.8031 C   0  0  0  0  0  0  0  0  0  0  0  0
   -1.9396  -15.3691   27.3383 C   0  0  0  0  0  0  0  0  0  0  0  0
   -2.0899  -14.7351   28.4869 F   0  0  0  0  0  0  0  0  0  0  0  0
   -1.3875  -16.8643   27.5004 C   0  0  0  0  0  0  0  0  0  0  0  0
   -1.7064  -17.7010   26.3789 C   0  0  0  0  0  0  0  0  0  0  0  0
   -2.3421  -18.8676   26.8936 N   0  0  0  0  0  0  0  0  0  0  0  0
   -3.2301  -18.1746   27.7027 C   0  0  0  0  0  0  0  0  0  0  0  0
   -3.3429  -16.9937   26.9287 N   0  0  0  0  0  0  0  0  0  0  0  0
   -2.4908  -16.5443   25.3182 C   0  0  0  0  0  0  0  0  0  0  0  0
   -1.0486  -11.3265   22.9144 H   0  0  0  0  0  0  0  0  0  0  0  0
   -0.0270  -10.1000   21.7989 H   0  0  0  0  0  0  0  0  0  0  0  0
   -1.4769   -9.7322   20.2031 H   0  0  0  0  0  0  0  0  0  0  0  0
   -1.7245  -11.4736   20.3560 H   0  0  0  0  0  0  0  0  0  0  0  0
   -1.5875  -10.6032   18.1956 H   0  0  0  0  0  0  0  0  0  0  0  0
    0.4985   -7.8837   22.4863 H   0  0  0  0  0  0  0  0  0  0  0  0
    1.8362   -5.9114   21.4118 H   0  0  0  0  0  0  0  0  0  0  0  0
    1.8007   -9.4803   18.6558 H   0  0  0  0  0  0  0  0  0  0  0  0
   -2.4871  -13.4930   25.8298 H   0  0  0  0  0  0  0  0  0  0  0  0
   -0.4825  -17.1602   28.0105 H   0  0  0  0  0  0  0  0  0  0  0  0
   -2.7571  -19.5649   26.2988 H   0  0  0  0  0  0  0  0  0  0  0  0
   -3.9397  -18.5606   28.4305 H   0  0  0  0  0  0  0  0  0  0  0  0
  1  2  2  0
  2  3  1  0
  3  4  1  0
  4  5  1  0
  5  6  1  0
  4  7  1  0
  7  8  1  0
  8  9  2  0
  9 10  1  0
 10 11  1  0
  2 12  1  0
 12 13  2  0
 13 14  1  0
 14 15  1  0
 14 16  2  0
 16 17  1  0
 17 18  1  0
 18 19  1  0
 19 20  2  0
 20 21  1  0
 11  7  2  0
 21 12  1  0
 21 17  2  0
  3 22  1  0
  4 23  1  0
  5 24  1  0
  5 25  1  0
  6 26  1  0
  8 27  1  0
  9 28  1  0
 11 29  1  0
 13 30  1  0
 16 31  1  0
 18 32  1  0
 19 33  1  0
M  END
>  <Energy>  (304) 
1183.1853342049355

>  <compound_id>  (304) 
4915

>  <target_id>  (304) 
1

>  <reference_id>  (304) 
66

>  <inspiration_ids>  (304) 
[94, 66]

>  <energy_score>  (304) 
1115.0872429914039

>  <distance_score>  (304) 
13.608394023101859

>  <path>  (304) 
/opt/xchem-fragalysis-2/maxwin/BulkDock/SCRATCH/511016/C4915-P66/C4915-P66.minimised.mol

>  <scratch_subdir>  (304) 
/opt/xchem-fragalysis-2/maxwin/BulkDock/SCRATCH/511016/C4915-P66

>  <fragmenstein_runtime>  (304) 
18.329883098602295

>  <fragmenstein_outcome>  (304) 
too moved

>  <fragmenstein_mode>  (304) 
expansion

>  <fragmenstein_error>  (304) 


$$$$
C4916-P94
     RDKit          3D

 50 53  0  0  0  0  0  0  0  0999 V2000
  -13.0944  -10.7714   25.3142 C   0  0  0  0  0  0  0  0  0  0  0  0
  -11.8025  -10.6505   25.9891 N   0  0  0  0  0  0  0  0  0  0  0  0
  -11.5234   -9.2610   26.3306 C   0  0  0  0  0  0  0  0  0  0  0  0
  -10.7094  -11.4418   25.3355 C   0  0  0  0  0  0  0  0  0  0  0  0
  -11.0685  -13.1224   25.9402 C   0  0  0  0  0  0  0  0  0  0  0  0
  -10.1404  -14.0703   26.9948 N   0  0  0  0  0  0  0  0  0  0  0  0
  -10.4789  -15.3644   27.7341 C   0  0  0  0  0  0  0  0  0  0  0  0
  -11.4601  -16.0600   27.6772 O   0  0  0  0  0  0  0  0  0  0  0  0
   -9.4519  -15.9299   28.9113 C   0  0  0  0  0  0  0  0  0  0  0  0
   -9.7189  -15.3272   30.7225 C   0  0  0  0  0  0  0  0  0  0  0  0
   -8.9027  -16.0050   32.3317 C   0  0  0  0  0  0  0  0  0  0  0  0
   -7.4563  -17.3439   32.2736 C   0  0  0  0  0  0  0  0  0  0  0  0
   -6.8737  -17.9560   33.4411 N   0  0  0  0  0  0  0  0  0  0  0  0
   -5.9841  -19.0157   33.4801 C   0  0  0  0  0  0  0  0  0  0  0  0
   -5.6612  -19.4236   34.6786 N   0  0  0  0  0  0  0  0  0  0  0  0
   -6.3639  -18.6033   35.4899 C   0  0  0  0  0  0  0  0  0  0  0  0
   -6.3722  -18.6150   36.8872 C   0  0  0  0  0  0  0  0  0  0  0  0
   -7.1553  -17.6795   37.5562 C   0  0  0  0  0  0  0  0  0  0  0  0
   -7.9231  -16.7629   36.8465 C   0  0  0  0  0  0  0  0  0  0  0  0
   -7.9118  -16.7307   35.4508 C   0  0  0  0  0  0  0  0  0  0  0  0
   -7.1233  -17.6665   34.7743 C   0  0  0  0  0  0  0  0  0  0  0  0
   -7.3681  -18.0257   30.4675 C   0  0  0  0  0  0  0  0  0  0  0  0
   -8.2407  -17.4370   28.7674 C   0  0  0  0  0  0  0  0  0  0  0  0
  -10.4240  -10.7233   23.9291 C   0  0  0  0  0  0  0  0  0  0  0  0
  -10.8871  -10.9726   22.5912 C   0  0  0  0  0  0  0  0  0  0  0  0
  -10.4520  -10.0484   21.6542 C   0  0  0  0  0  0  0  0  0  0  0  0
   -9.7253   -8.7023   22.3989 S   0  0  0  0  0  0  0  0  0  0  0  0
   -9.6442   -9.5521   23.8827 C   0  0  0  0  0  0  0  0  0  0  0  0
  -13.8948  -10.4050   25.9672 H   0  0  0  0  0  0  0  0  0  0  0  0
  -13.1371  -10.1984   24.3818 H   0  0  0  0  0  0  0  0  0  0  0  0
  -13.3369  -11.8140   25.0844 H   0  0  0  0  0  0  0  0  0  0  0  0
  -10.5356   -9.1400   26.7856 H   0  0  0  0  0  0  0  0  0  0  0  0
  -12.2473   -8.9144   27.0774 H   0  0  0  0  0  0  0  0  0  0  0  0
  -11.5987   -8.5852   25.4727 H   0  0  0  0  0  0  0  0  0  0  0  0
   -9.7113  -11.2631   25.7232 H   0  0  0  0  0  0  0  0  0  0  0  0
  -11.9065  -12.9573   26.6336 H   0  0  0  0  0  0  0  0  0  0  0  0
  -11.5535  -13.7472   25.1855 H   0  0  0  0  0  0  0  0  0  0  0  0
   -9.2623  -13.7052   27.3450 H   0  0  0  0  0  0  0  0  0  0  0  0
  -10.7024  -14.8788   30.8819 H   0  0  0  0  0  0  0  0  0  0  0  0
   -9.3267  -15.6619   33.2668 H   0  0  0  0  0  0  0  0  0  0  0  0
   -5.6177  -19.5220   32.6085 H   0  0  0  0  0  0  0  0  0  0  0  0
   -5.7772  -19.3436   37.4261 H   0  0  0  0  0  0  0  0  0  0  0  0
   -7.1675  -17.6716   38.6431 H   0  0  0  0  0  0  0  0  0  0  0  0
   -8.5267  -16.0387   37.3903 H   0  0  0  0  0  0  0  0  0  0  0  0
   -8.4869  -15.9685   34.9568 H   0  0  0  0  0  0  0  0  0  0  0  0
   -6.6942  -18.7764   30.3207 H   0  0  0  0  0  0  0  0  0  0  0  0
   -8.2529  -17.9836   27.8606 H   0  0  0  0  0  0  0  0  0  0  0  0
  -11.5318  -11.7998   22.3173 H   0  0  0  0  0  0  0  0  0  0  0  0
  -10.6596  -10.0407   20.5928 H   0  0  0  0  0  0  0  0  0  0  0  0
   -9.1421   -9.0846   24.7196 H   0  0  0  0  0  0  0  0  0  0  0  0
  1  2  1  0
  2  3  1  0
  2  4  1  0
  4  5  1  0
  5  6  1  0
  6  7  1  0
  7  8  2  0
  7  9  1  0
  9 10  2  0
 10 11  1  0
 11 12  2  0
 12 13  1  0
 13 14  1  0
 14 15  2  0
 15 16  1  0
 16 17  2  0
 17 18  1  0
 18 19  2  0
 19 20  1  0
 20 21  2  0
 12 22  1  0
 22 23  2  0
  4 24  1  0
 24 25  1  0
 25 26  2  0
 26 27  1  0
 27 28  1  0
 23  9  1  0
 28 24  2  0
 21 13  1  0
 21 16  1  0
  1 29  1  0
  1 30  1  0
  1 31  1  0
  3 32  1  0
  3 33  1  0
  3 34  1  0
  4 35  1  0
  5 36  1  0
  5 37  1  0
  6 38  1  0
 10 39  1  0
 11 40  1  0
 14 41  1  0
 17 42  1  0
 18 43  1  0
 19 44  1  0
 20 45  1  0
 22 46  1  0
 23 47  1  0
 25 48  1  0
 26 49  1  0
 28 50  1  0
M  END
>  <Energy>  (305) 
709.4747848188839

>  <compound_id>  (305) 
4916

>  <target_id>  (305) 
1

>  <reference_id>  (305) 
94

>  <inspiration_ids>  (305) 
[94, 66]

>  <energy_score>  (305) 
566.705955407091

>  <distance_score>  (305) 
17.59640402696127

>  <path>  (305) 
/opt/xchem-fragalysis-2/maxwin/BulkDock/SCRATCH/511016/C4916-P94/C4916-P94.minimised.mol

>  <scratch_subdir>  (305) 
/opt/xchem-fragalysis-2/maxwin/BulkDock/SCRATCH/511016/C4916-P94

>  <fragmenstein_runtime>  (305) 
41.3635630607605

>  <fragmenstein_outcome>  (305) 
too moved

>  <fragmenstein_mode>  (305) 
expansion

>  <fragmenstein_error>  (305) 


$$$$
C4916-P66
     RDKit          3D

 50 53  0  0  0  0  0  0  0  0999 V2000
   -2.3435   -3.0255   25.0114 C   0  0  0  0  0  0  0  0  0  0  0  0
   -2.4097   -4.4564   24.7311 N   0  0  0  0  0  0  0  0  0  0  0  0
   -2.4516   -4.6919   23.2877 C   0  0  0  0  0  0  0  0  0  0  0  0
   -1.3881   -5.2771   25.4265 C   0  0  0  0  0  0  0  0  0  0  0  0
   -1.6710   -5.2963   27.0250 C   0  0  0  0  0  0  0  0  0  0  0  0
   -2.9507   -5.8881   27.6522 N   0  0  0  0  0  0  0  0  0  0  0  0
   -3.7419   -5.4554   28.8117 C   0  0  0  0  0  0  0  0  0  0  0  0
   -3.6350   -4.4846   29.5121 O   0  0  0  0  0  0  0  0  0  0  0  0
   -4.8745   -6.4108   29.3791 C   0  0  0  0  0  0  0  0  0  0  0  0
   -5.9999   -7.0111   28.7749 C   0  0  0  0  0  0  0  0  0  0  0  0
   -6.9532   -7.8686   29.5195 C   0  0  0  0  0  0  0  0  0  0  0  0
   -6.7826   -8.1562   30.8864 C   0  0  0  0  0  0  0  0  0  0  0  0
   -7.5831   -9.0905   31.6841 N   0  0  0  0  0  0  0  0  0  0  0  0
   -7.0681   -9.7882   32.7701 C   0  0  0  0  0  0  0  0  0  0  0  0
   -7.9309  -10.5460   33.4023 N   0  0  0  0  0  0  0  0  0  0  0  0
   -9.1093  -10.3118   32.7647 C   0  0  0  0  0  0  0  0  0  0  0  0
  -10.3773  -10.8269   33.0998 C   0  0  0  0  0  0  0  0  0  0  0  0
  -11.4758  -10.4619   32.3229 C   0  0  0  0  0  0  0  0  0  0  0  0
  -11.3021   -9.6189   31.2232 C   0  0  0  0  0  0  0  0  0  0  0  0
  -10.0385   -9.1036   30.8666 C   0  0  0  0  0  0  0  0  0  0  0  0
   -8.9354   -9.4549   31.6584 C   0  0  0  0  0  0  0  0  0  0  0  0
   -5.6884   -7.4996   31.4923 C   0  0  0  0  0  0  0  0  0  0  0  0
   -4.7859   -6.6552   30.7694 C   0  0  0  0  0  0  0  0  0  0  0  0
    0.0758   -4.9692   24.9202 C   0  0  0  0  0  0  0  0  0  0  0  0
    0.7203   -5.7068   23.8382 C   0  0  0  0  0  0  0  0  0  0  0  0
    1.9783   -5.2470   23.5048 C   0  0  0  0  0  0  0  0  0  0  0  0
    2.4419   -3.9348   24.4883 S   0  0  0  0  0  0  0  0  0  0  0  0
    0.9506   -3.9813   25.3527 C   0  0  0  0  0  0  0  0  0  0  0  0
   -1.4373   -2.5568   24.6146 H   0  0  0  0  0  0  0  0  0  0  0  0
   -3.2026   -2.5146   24.5606 H   0  0  0  0  0  0  0  0  0  0  0  0
   -2.4034   -2.8157   26.0829 H   0  0  0  0  0  0  0  0  0  0  0  0
   -3.3604   -4.2504   22.8628 H   0  0  0  0  0  0  0  0  0  0  0  0
   -2.4909   -5.7600   23.0542 H   0  0  0  0  0  0  0  0  0  0  0  0
   -1.5945   -4.2557   22.7634 H   0  0  0  0  0  0  0  0  0  0  0  0
   -1.5653   -6.3225   25.1392 H   0  0  0  0  0  0  0  0  0  0  0  0
   -0.8703   -5.8972   27.4748 H   0  0  0  0  0  0  0  0  0  0  0  0
   -1.5577   -4.2922   27.4467 H   0  0  0  0  0  0  0  0  0  0  0  0
   -3.3724   -6.7119   27.2545 H   0  0  0  0  0  0  0  0  0  0  0  0
   -6.1910   -6.8453   27.7174 H   0  0  0  0  0  0  0  0  0  0  0  0
   -7.7606   -8.3332   28.9543 H   0  0  0  0  0  0  0  0  0  0  0  0
   -6.0293   -9.7028   33.0452 H   0  0  0  0  0  0  0  0  0  0  0  0
  -10.4850  -11.4866   33.9534 H   0  0  0  0  0  0  0  0  0  0  0  0
  -12.4638  -10.8410   32.5686 H   0  0  0  0  0  0  0  0  0  0  0  0
  -12.1668   -9.3483   30.6198 H   0  0  0  0  0  0  0  0  0  0  0  0
   -9.9399   -8.4393   30.0154 H   0  0  0  0  0  0  0  0  0  0  0  0
   -5.5068   -7.5903   32.5634 H   0  0  0  0  0  0  0  0  0  0  0  0
   -3.9849   -6.1750   31.3360 H   0  0  0  0  0  0  0  0  0  0  0  0
    0.2504   -6.5379   23.3212 H   0  0  0  0  0  0  0  0  0  0  0  0
    2.6354   -5.6271   22.7348 H   0  0  0  0  0  0  0  0  0  0  0  0
    0.7827   -3.2545   26.1356 H   0  0  0  0  0  0  0  0  0  0  0  0
  1  2  1  0
  2  3  1  0
  2  4  1  0
  4  5  1  0
  5  6  1  0
  6  7  1  0
  7  8  2  0
  7  9  1  0
  9 10  2  0
 10 11  1  0
 11 12  2  0
 12 13  1  0
 13 14  1  0
 14 15  2  0
 15 16  1  0
 16 17  2  0
 17 18  1  0
 18 19  2  0
 19 20  1  0
 20 21  2  0
 12 22  1  0
 22 23  2  0
  4 24  1  0
 24 25  1  0
 25 26  2  0
 26 27  1  0
 27 28  1  0
 23  9  1  0
 28 24  2  0
 21 13  1  0
 21 16  1  0
  1 29  1  0
  1 30  1  0
  1 31  1  0
  3 32  1  0
  3 33  1  0
  3 34  1  0
  4 35  1  0
  5 36  1  0
  5 37  1  0
  6 38  1  0
 10 39  1  0
 11 40  1  0
 14 41  1  0
 17 42  1  0
 18 43  1  0
 19 44  1  0
 20 45  1  0
 22 46  1  0
 23 47  1  0
 25 48  1  0
 26 49  1  0
 28 50  1  0
M  END
>  <Energy>  (306) 
139.34192901936501

>  <compound_id>  (306) 
4916

>  <target_id>  (306) 
1

>  <reference_id>  (306) 
66

>  <inspiration_ids>  (306) 
[94, 66]

>  <energy_score>  (306) 
-3.4269003924435992

>  <distance_score>  (306) 
15.304039100451474

>  <path>  (306) 
/opt/xchem-fragalysis-2/maxwin/BulkDock/SCRATCH/511016/C4916-P66/C4916-P66.minimised.mol

>  <scratch_subdir>  (306) 
/opt/xchem-fragalysis-2/maxwin/BulkDock/SCRATCH/511016/C4916-P66

>  <fragmenstein_runtime>  (306) 
41.46147584915161

>  <fragmenstein_outcome>  (306) 
too moved

>  <fragmenstein_mode>  (306) 
expansion

>  <fragmenstein_error>  (306) 


$$$$
C4917-P94
     RDKit          3D

 43 46  0  0  0  0  0  0  0  0999 V2000
    4.3978  -14.4250   25.7722 O   0  0  0  0  0  0  0  0  0  0  0  0
    4.0631  -14.5189   24.6007 C   0  0  0  0  0  0  0  0  0  0  0  0
    4.8169  -15.3567   23.8072 O   0  0  0  0  0  0  0  0  0  0  0  0
    2.6332  -13.7859   23.7203 C   0  0  0  0  0  0  0  0  0  0  0  0
    0.6517  -14.2303   23.8383 N   0  0  0  0  0  0  0  0  0  0  0  0
   -1.1108  -15.0754   24.5277 C   0  0  0  0  0  0  0  0  0  0  0  0
   -2.3796  -16.5902   25.2139 C   0  0  0  0  0  0  0  0  0  0  0  0
   -2.3307  -18.0032   25.1305 C   0  0  0  0  0  0  0  0  0  0  0  0
   -3.4829  -19.6550   24.9098 C   0  0  0  0  0  0  0  0  0  0  0  0
   -4.2957  -20.2498   25.7528 C   0  0  0  0  0  0  0  0  0  0  0  0
   -4.9764  -21.9845   25.9671 N   0  0  0  0  0  0  0  0  0  0  0  0
   -5.5070  -21.8959   27.3012 C   0  0  0  0  0  0  0  0  0  0  0  0
   -5.9389  -22.9133   27.9154 N   0  0  0  0  0  0  0  0  0  0  0  0
   -7.0839  -22.7315   27.3553 C   0  0  0  0  0  0  0  0  0  0  0  0
   -8.5602  -23.1450   27.8991 C   0  0  0  0  0  0  0  0  0  0  0  0
   -9.5301  -23.9693   27.4457 C   0  0  0  0  0  0  0  0  0  0  0  0
   -9.0389  -24.1023   26.2081 C   0  0  0  0  0  0  0  0  0  0  0  0
   -7.4026  -23.6695   25.3547 C   0  0  0  0  0  0  0  0  0  0  0  0
   -6.4054  -23.0010   26.1080 C   0  0  0  0  0  0  0  0  0  0  0  0
   -2.6574  -19.4490   26.2597 C   0  0  0  0  0  0  0  0  0  0  0  0
   -2.3158  -17.5942   26.4431 C   0  0  0  0  0  0  0  0  0  0  0  0
    3.8210  -13.2428   22.4180 C   0  0  0  0  0  0  0  0  0  0  0  0
    4.0270  -13.8339   21.0764 C   0  0  0  0  0  0  0  0  0  0  0  0
    5.0975  -13.3303   20.3542 C   0  0  0  0  0  0  0  0  0  0  0  0
    6.0213  -12.2536   21.2835 S   0  0  0  0  0  0  0  0  0  0  0  0
    5.0521  -12.5973   22.6581 C   0  0  0  0  0  0  0  0  0  0  0  0
    4.4990  -15.4623   22.8935 H   0  0  0  0  0  0  0  0  0  0  0  0
    2.6660  -14.7188   23.2005 H   0  0  0  0  0  0  0  0  0  0  0  0
    0.3163  -14.2294   22.8453 H   0  0  0  0  0  0  0  0  0  0  0  0
   -1.5242  -15.1036   23.5437 H   0  0  0  0  0  0  0  0  0  0  0  0
   -1.5194  -14.2647   25.1649 H   0  0  0  0  0  0  0  0  0  0  0  0
   -1.1612  -18.4376   25.5666 H   0  0  0  0  0  0  0  0  0  0  0  0
   -3.0599  -20.4090   24.0825 H   0  0  0  0  0  0  0  0  0  0  0  0
   -5.7893  -20.8894   27.4538 H   0  0  0  0  0  0  0  0  0  0  0  0
   -9.1223  -22.3816   28.3967 H   0  0  0  0  0  0  0  0  0  0  0  0
  -10.5472  -24.0716   27.7722 H   0  0  0  0  0  0  0  0  0  0  0  0
   -9.8646  -24.3288   25.4616 H   0  0  0  0  0  0  0  0  0  0  0  0
   -7.3395  -23.8456   24.2717 H   0  0  0  0  0  0  0  0  0  0  0  0
   -1.8174  -19.8982   26.8529 H   0  0  0  0  0  0  0  0  0  0  0  0
   -1.6626  -17.3784   27.2920 H   0  0  0  0  0  0  0  0  0  0  0  0
    3.3600  -14.5584   20.6276 H   0  0  0  0  0  0  0  0  0  0  0  0
    5.3726  -13.5599   19.3331 H   0  0  0  0  0  0  0  0  0  0  0  0
    5.5032  -12.3291   23.6013 H   0  0  0  0  0  0  0  0  0  0  0  0
  1  2  2  0
  2  3  1  0
  2  4  1  0
  4  5  1  0
  5  6  1  0
  6  7  1  0
  7  8  2  0
  8  9  1  0
  9 10  2  0
 10 11  1  0
 11 12  1  0
 12 13  2  0
 13 14  1  0
 14 15  2  0
 15 16  1  0
 16 17  2  0
 17 18  1  0
 18 19  2  0
 10 20  1  0
 20 21  2  0
  4 22  1  0
 22 23  1  0
 23 24  2  0
 24 25  1  0
 25 26  1  0
 21  7  1  0
 26 22  2  0
 19 11  1  0
 19 14  1  0
  3 27  1  0
  4 28  1  0
  5 29  1  0
  6 30  1  0
  6 31  1  0
  8 32  1  0
  9 33  1  0
 12 34  1  0
 15 35  1  0
 16 36  1  0
 17 37  1  0
 18 38  1  0
 20 39  1  0
 21 40  1  0
 23 41  1  0
 24 42  1  0
 26 43  1  0
M  END
>  <Energy>  (307) 
1766.8224845527643

>  <compound_id>  (307) 
4917

>  <target_id>  (307) 
1

>  <reference_id>  (307) 
94

>  <inspiration_ids>  (307) 
[94, 66]

>  <energy_score>  (307) 
1620.5488859819443

>  <distance_score>  (307) 
11.609811952858754

>  <path>  (307) 
/opt/xchem-fragalysis-2/maxwin/BulkDock/SCRATCH/511016/C4917-P94/C4917-P94.minimised.mol

>  <scratch_subdir>  (307) 
/opt/xchem-fragalysis-2/maxwin/BulkDock/SCRATCH/511016/C4917-P94

>  <fragmenstein_runtime>  (307) 
25.64073920249939

>  <fragmenstein_outcome>  (307) 
too moved

>  <fragmenstein_mode>  (307) 
expansion

>  <fragmenstein_error>  (307) 


$$$$
C4917-P66
     RDKit          3D

 43 46  0  0  0  0  0  0  0  0999 V2000
   -7.5894   -4.6635   23.0110 O   0  0  0  0  0  0  0  0  0  0  0  0
   -8.2702   -4.9891   22.0512 C   0  0  0  0  0  0  0  0  0  0  0  0
   -9.5292   -4.4816   21.9515 O   0  0  0  0  0  0  0  0  0  0  0  0
   -7.9303   -5.9177   20.8630 C   0  0  0  0  0  0  0  0  0  0  0  0
   -8.4312   -7.3488   21.0480 N   0  0  0  0  0  0  0  0  0  0  0  0
   -9.7427   -7.5808   21.7424 C   0  0  0  0  0  0  0  0  0  0  0  0
  -10.1219   -8.9857   22.3805 C   0  0  0  0  0  0  0  0  0  0  0  0
  -10.2697   -9.1109   23.7783 C   0  0  0  0  0  0  0  0  0  0  0  0
  -10.8314  -10.2723   24.4302 C   0  0  0  0  0  0  0  0  0  0  0  0
  -11.2618  -11.4183   23.7322 C   0  0  0  0  0  0  0  0  0  0  0  0
  -11.8571  -12.5670   24.4542 N   0  0  0  0  0  0  0  0  0  0  0  0
  -12.2221  -12.5300   25.7983 C   0  0  0  0  0  0  0  0  0  0  0  0
  -12.7441  -13.6378   26.2659 N   0  0  0  0  0  0  0  0  0  0  0  0
  -12.8123  -14.4568   25.1869 C   0  0  0  0  0  0  0  0  0  0  0  0
  -13.4133  -15.7250   25.1176 C   0  0  0  0  0  0  0  0  0  0  0  0
  -13.3505  -16.4552   23.9331 C   0  0  0  0  0  0  0  0  0  0  0  0
  -12.7212  -15.9063   22.8252 C   0  0  0  0  0  0  0  0  0  0  0  0
  -12.1916  -14.6019   22.8517 C   0  0  0  0  0  0  0  0  0  0  0  0
  -12.2404  -13.8642   24.0480 C   0  0  0  0  0  0  0  0  0  0  0  0
  -11.0838  -11.3226   22.3365 C   0  0  0  0  0  0  0  0  0  0  0  0
  -10.5366  -10.1342   21.6787 C   0  0  0  0  0  0  0  0  0  0  0  0
   -6.3707   -5.7611   20.4775 C   0  0  0  0  0  0  0  0  0  0  0  0
   -5.2325   -5.8303   21.3860 C   0  0  0  0  0  0  0  0  0  0  0  0
   -3.9998   -5.6296   20.7902 C   0  0  0  0  0  0  0  0  0  0  0  0
   -4.1520   -5.3199   19.1227 S   0  0  0  0  0  0  0  0  0  0  0  0
   -5.8702   -5.4589   19.2090 C   0  0  0  0  0  0  0  0  0  0  0  0
   -9.5997   -3.9300   22.7590 H   0  0  0  0  0  0  0  0  0  0  0  0
   -8.4722   -5.5118   19.9964 H   0  0  0  0  0  0  0  0  0  0  0  0
   -8.4450   -7.7970   20.1379 H   0  0  0  0  0  0  0  0  0  0  0  0
   -9.8191   -6.8824   22.5808 H   0  0  0  0  0  0  0  0  0  0  0  0
  -10.5519   -7.3190   21.0497 H   0  0  0  0  0  0  0  0  0  0  0  0
   -9.9758   -8.2723   24.4132 H   0  0  0  0  0  0  0  0  0  0  0  0
  -10.9133  -10.1873   25.5077 H   0  0  0  0  0  0  0  0  0  0  0  0
  -12.1329  -11.6319   26.3869 H   0  0  0  0  0  0  0  0  0  0  0  0
  -13.9395  -16.1000   25.9895 H   0  0  0  0  0  0  0  0  0  0  0  0
  -13.8193  -17.4327   23.8654 H   0  0  0  0  0  0  0  0  0  0  0  0
  -12.6794  -16.4750   21.8974 H   0  0  0  0  0  0  0  0  0  0  0  0
  -11.7670  -14.1958   21.9420 H   0  0  0  0  0  0  0  0  0  0  0  0
  -11.4033  -12.1258   21.6805 H   0  0  0  0  0  0  0  0  0  0  0  0
  -10.4933  -10.1305   20.5899 H   0  0  0  0  0  0  0  0  0  0  0  0
   -5.3357   -6.0414   22.4457 H   0  0  0  0  0  0  0  0  0  0  0  0
   -3.0302   -5.6550   21.2687 H   0  0  0  0  0  0  0  0  0  0  0  0
   -6.4412   -5.3157   18.3022 H   0  0  0  0  0  0  0  0  0  0  0  0
  1  2  2  0
  2  3  1  0
  2  4  1  0
  4  5  1  0
  5  6  1  0
  6  7  1  0
  7  8  2  0
  8  9  1  0
  9 10  2  0
 10 11  1  0
 11 12  1  0
 12 13  2  0
 13 14  1  0
 14 15  2  0
 15 16  1  0
 16 17  2  0
 17 18  1  0
 18 19  2  0
 10 20  1  0
 20 21  2  0
  4 22  1  0
 22 23  1  0
 23 24  2  0
 24 25  1  0
 25 26  1  0
 21  7  1  0
 26 22  2  0
 19 11  1  0
 19 14  1  0
  3 27  1  0
  4 28  1  0
  5 29  1  0
  6 30  1  0
  6 31  1  0
  8 32  1  0
  9 33  1  0
 12 34  1  0
 15 35  1  0
 16 36  1  0
 17 37  1  0
 18 38  1  0
 20 39  1  0
 21 40  1  0
 23 41  1  0
 24 42  1  0
 26 43  1  0
M  END
>  <Energy>  (308) 
133.00585225032307

>  <compound_id>  (308) 
4917

>  <target_id>  (308) 
1

>  <reference_id>  (308) 
66

>  <inspiration_ids>  (308) 
[94, 66]

>  <energy_score>  (308) 
-13.267746320481706

>  <distance_score>  (308) 
15.901421600239434

>  <path>  (308) 
/opt/xchem-fragalysis-2/maxwin/BulkDock/SCRATCH/511016/C4917-P66/C4917-P66.minimised.mol

>  <scratch_subdir>  (308) 
/opt/xchem-fragalysis-2/maxwin/BulkDock/SCRATCH/511016/C4917-P66

>  <fragmenstein_runtime>  (308) 
30.641683340072632

>  <fragmenstein_outcome>  (308) 
too moved

>  <fragmenstein_mode>  (308) 
expansion

>  <fragmenstein_error>  (308) 


$$$$
C4918-P94
     RDKit          3D

 40 43  0  0  0  0  0  0  0  0999 V2000
  -11.0078  -23.9987   27.3692 C   0  0  0  0  0  0  0  0  0  0  0  0
  -11.6429  -22.9408   26.8308 C   0  0  0  0  0  0  0  0  0  0  0  0
  -11.0873  -21.5675   26.9728 C   0  0  0  0  0  0  0  0  0  0  0  0
   -9.6081  -20.9474   27.6678 C   0  0  0  0  0  0  0  0  0  0  0  0
   -9.7913  -22.2185   28.4288 C   0  0  0  0  0  0  0  0  0  0  0  0
   -9.9185  -23.6334   28.0883 C   0  0  0  0  0  0  0  0  0  0  0  0
  -10.5323  -21.6701   29.3386 N   0  0  0  0  0  0  0  0  0  0  0  0
  -10.0502  -20.4460   29.3213 C   0  0  0  0  0  0  0  0  0  0  0  0
   -8.6037  -19.4664   28.3546 N   0  0  0  0  0  0  0  0  0  0  0  0
   -7.3072  -17.8250   28.3944 C   0  0  0  0  0  0  0  0  0  0  0  0
   -5.4552  -18.1321   27.6261 C   0  0  0  0  0  0  0  0  0  0  0  0
   -3.6765  -17.3035   27.3868 C   0  0  0  0  0  0  0  0  0  0  0  0
   -3.0405  -16.2272   27.9744 C   0  0  0  0  0  0  0  0  0  0  0  0
   -1.4406  -15.1725   27.9823 C   0  0  0  0  0  0  0  0  0  0  0  0
   -0.2215  -13.9655   27.0750 N   0  0  0  0  0  0  0  0  0  0  0  0
    1.1864  -12.9532   26.6029 C   0  0  0  0  0  0  0  0  0  0  0  0
    1.2808  -11.2651   27.5980 C   0  0  0  0  0  0  0  0  0  0  0  0
    2.2111  -10.9450   28.6449 C   0  0  0  0  0  0  0  0  0  0  0  0
    1.5995  -10.4857   29.7632 C   0  0  0  0  0  0  0  0  0  0  0  0
    0.0119   -9.9476   29.4678 S   0  0  0  0  0  0  0  0  0  0  0  0
    0.2932  -10.2994   27.8725 C   0  0  0  0  0  0  0  0  0  0  0  0
   -3.9958  -16.3923   29.1407 C   0  0  0  0  0  0  0  0  0  0  0  0
   -5.7337  -17.0851   29.0947 C   0  0  0  0  0  0  0  0  0  0  0  0
  -11.3486  -25.0167   27.2680 H   0  0  0  0  0  0  0  0  0  0  0  0
  -12.4918  -23.1407   26.1858 H   0  0  0  0  0  0  0  0  0  0  0  0
  -11.5403  -21.0182   26.1589 H   0  0  0  0  0  0  0  0  0  0  0  0
   -9.5397  -24.3978   28.7671 H   0  0  0  0  0  0  0  0  0  0  0  0
  -10.3984  -20.1480   30.3103 H   0  0  0  0  0  0  0  0  0  0  0  0
   -5.4482  -19.0972   26.9979 H   0  0  0  0  0  0  0  0  0  0  0  0
   -2.8017  -17.8950   26.9962 H   0  0  0  0  0  0  0  0  0  0  0  0
   -1.9829  -14.5693   28.6836 H   0  0  0  0  0  0  0  0  0  0  0  0
   -0.7051  -15.6237   28.6483 H   0  0  0  0  0  0  0  0  0  0  0  0
   -0.6928  -13.6003   26.1150 H   0  0  0  0  0  0  0  0  0  0  0  0
    1.3630  -12.7699   25.5783 H   0  0  0  0  0  0  0  0  0  0  0  0
    2.0019  -13.6817   26.7721 H   0  0  0  0  0  0  0  0  0  0  0  0
    3.1760  -11.3147   28.8854 H   0  0  0  0  0  0  0  0  0  0  0  0
    2.1388  -10.2810   30.6741 H   0  0  0  0  0  0  0  0  0  0  0  0
   -0.5741   -9.9743   27.3785 H   0  0  0  0  0  0  0  0  0  0  0  0
   -3.6318  -15.8717   30.0158 H   0  0  0  0  0  0  0  0  0  0  0  0
   -6.0474  -15.9187   29.0002 H   0  0  0  0  0  0  0  0  0  0  0  0
  1  2  2  0
  2  3  1  0
  3  4  2  0
  4  5  1  0
  5  6  2  0
  5  7  1  0
  7  8  2  0
  8  9  1  0
  9 10  1  0
 10 11  2  0
 11 12  1  0
 12 13  2  0
 13 14  1  0
 14 15  1  0
 15 16  1  0
 16 17  1  0
 17 18  1  0
 18 19  2  0
 19 20  1  0
 20 21  1  0
 13 22  1  0
 22 23  2  0
  6  1  1  0
 23 10  1  0
  9  4  1  0
 21 17  2  0
  1 24  1  0
  2 25  1  0
  3 26  1  0
  6 27  1  0
  8 28  1  0
 11 29  1  0
 12 30  1  0
 14 31  1  0
 14 32  1  0
 15 33  1  0
 16 34  1  0
 16 35  1  0
 18 36  1  0
 19 37  1  0
 21 38  1  0
 22 39  1  0
 23 40  1  0
M  END
>  <Energy>  (309) 
1737.4157186826149

>  <compound_id>  (309) 
4918

>  <target_id>  (309) 
1

>  <reference_id>  (309) 
94

>  <inspiration_ids>  (309) 
[94, 66]

>  <energy_score>  (309) 
1636.1901221430742

>  <distance_score>  (309) 
13.17111353331465

>  <path>  (309) 
/opt/xchem-fragalysis-2/maxwin/BulkDock/SCRATCH/511016/C4918-P94/C4918-P94.minimised.mol

>  <scratch_subdir>  (309) 
/opt/xchem-fragalysis-2/maxwin/BulkDock/SCRATCH/511016/C4918-P94

>  <fragmenstein_runtime>  (309) 
17.981581926345825

>  <fragmenstein_outcome>  (309) 
too moved

>  <fragmenstein_mode>  (309) 
expansion

>  <fragmenstein_error>  (309) 


$$$$
C4918-P66
     RDKit          3D

 40 43  0  0  0  0  0  0  0  0999 V2000
   -8.2721  -17.0566   35.3312 C   0  0  0  0  0  0  0  0  0  0  0  0
   -8.7082  -16.0583   34.4929 C   0  0  0  0  0  0  0  0  0  0  0  0
   -7.9810  -15.7530   33.3480 C   0  0  0  0  0  0  0  0  0  0  0  0
   -6.7943  -16.5026   32.9568 C   0  0  0  0  0  0  0  0  0  0  0  0
   -6.3682  -17.4617   33.9025 C   0  0  0  0  0  0  0  0  0  0  0  0
   -7.1405  -17.8069   35.0226 C   0  0  0  0  0  0  0  0  0  0  0  0
   -5.0718  -17.7666   33.7723 N   0  0  0  0  0  0  0  0  0  0  0  0
   -4.6672  -16.8332   32.9573 C   0  0  0  0  0  0  0  0  0  0  0  0
   -5.7165  -16.4808   31.8383 N   0  0  0  0  0  0  0  0  0  0  0  0
   -5.1416  -15.9328   30.0733 C   0  0  0  0  0  0  0  0  0  0  0  0
   -3.9704  -16.3303   28.9085 C   0  0  0  0  0  0  0  0  0  0  0  0
   -2.5133  -16.1762   27.7866 C   0  0  0  0  0  0  0  0  0  0  0  0
   -1.3605  -15.3910   28.3057 C   0  0  0  0  0  0  0  0  0  0  0  0
    0.4242  -15.9653   28.8596 C   0  0  0  0  0  0  0  0  0  0  0  0
    1.7689  -16.2914   27.9491 N   0  0  0  0  0  0  0  0  0  0  0  0
    3.5710  -16.0526   27.8756 C   0  0  0  0  0  0  0  0  0  0  0  0
    4.7645  -15.3022   26.8327 C   0  0  0  0  0  0  0  0  0  0  0  0
    5.2714  -15.7592   25.5465 C   0  0  0  0  0  0  0  0  0  0  0  0
    6.1936  -14.9133   24.9538 C   0  0  0  0  0  0  0  0  0  0  0  0
    6.6483  -13.6484   25.9972 S   0  0  0  0  0  0  0  0  0  0  0  0
    5.5614  -14.2142   27.2100 C   0  0  0  0  0  0  0  0  0  0  0  0
   -2.1209  -14.7489   29.3899 C   0  0  0  0  0  0  0  0  0  0  0  0
   -3.6237  -15.0992   30.0875 C   0  0  0  0  0  0  0  0  0  0  0  0
   -8.7937  -17.2223   36.2689 H   0  0  0  0  0  0  0  0  0  0  0  0
   -9.5962  -15.4830   34.7423 H   0  0  0  0  0  0  0  0  0  0  0  0
   -8.3520  -14.9101   32.7630 H   0  0  0  0  0  0  0  0  0  0  0  0
   -6.7571  -18.5390   35.7263 H   0  0  0  0  0  0  0  0  0  0  0  0
   -3.6430  -16.5208   32.8019 H   0  0  0  0  0  0  0  0  0  0  0  0
   -3.5088  -16.8196   29.7662 H   0  0  0  0  0  0  0  0  0  0  0  0
   -2.3713  -17.0962   27.2060 H   0  0  0  0  0  0  0  0  0  0  0  0
    0.3019  -15.0774   29.3337 H   0  0  0  0  0  0  0  0  0  0  0  0
    0.6416  -16.4756   29.8234 H   0  0  0  0  0  0  0  0  0  0  0  0
    1.7384  -17.3129   27.8803 H   0  0  0  0  0  0  0  0  0  0  0  0
    3.2113  -15.0374   27.7921 H   0  0  0  0  0  0  0  0  0  0  0  0
    3.6207  -16.9358   27.2329 H   0  0  0  0  0  0  0  0  0  0  0  0
    4.9455  -16.6686   25.0579 H   0  0  0  0  0  0  0  0  0  0  0  0
    6.6543  -15.0196   23.9815 H   0  0  0  0  0  0  0  0  0  0  0  0
    5.5459  -13.6871   28.1512 H   0  0  0  0  0  0  0  0  0  0  0  0
   -2.4719  -13.7299   29.2755 H   0  0  0  0  0  0  0  0  0  0  0  0
   -4.0840  -13.9799   30.0022 H   0  0  0  0  0  0  0  0  0  0  0  0
  1  2  2  0
  2  3  1  0
  3  4  2  0
  4  5  1  0
  5  6  2  0
  5  7  1  0
  7  8  2  0
  8  9  1  0
  9 10  1  0
 10 11  2  0
 11 12  1  0
 12 13  2  0
 13 14  1  0
 14 15  1  0
 15 16  1  0
 16 17  1  0
 17 18  1  0
 18 19  2  0
 19 20  1  0
 20 21  1  0
 13 22  1  0
 22 23  2  0
  6  1  1  0
 23 10  1  0
  9  4  1  0
 21 17  2  0
  1 24  1  0
  2 25  1  0
  3 26  1  0
  6 27  1  0
  8 28  1  0
 11 29  1  0
 12 30  1  0
 14 31  1  0
 14 32  1  0
 15 33  1  0
 16 34  1  0
 16 35  1  0
 18 36  1  0
 19 37  1  0
 21 38  1  0
 22 39  1  0
 23 40  1  0
M  END
>  <Energy>  (310) 
876.5736967836674

>  <compound_id>  (310) 
4918

>  <target_id>  (310) 
1

>  <reference_id>  (310) 
66

>  <inspiration_ids>  (310) 
[94, 66]

>  <energy_score>  (310) 
775.3481002440925

>  <distance_score>  (310) 
14.062547873338737

>  <path>  (310) 
/opt/xchem-fragalysis-2/maxwin/BulkDock/SCRATCH/511016/C4918-P66/C4918-P66.minimised.mol

>  <scratch_subdir>  (310) 
/opt/xchem-fragalysis-2/maxwin/BulkDock/SCRATCH/511016/C4918-P66

>  <fragmenstein_runtime>  (310) 
24.799831867218018

>  <fragmenstein_outcome>  (310) 
too moved

>  <fragmenstein_mode>  (310) 
expansion

>  <fragmenstein_error>  (310) 


$$$$
C4919-P94
     RDKit          3D

 36 39  0  0  0  0  0  0  0  0999 V2000
   -3.0825  -17.5165   18.2676 O   0  0  0  0  0  0  0  0  0  0  0  0
   -3.7010  -16.5150   18.0456 C   0  0  0  0  0  0  0  0  0  0  0  0
   -5.1042  -16.1928   18.2834 N   0  0  0  0  0  0  0  0  0  0  0  0
   -6.1409  -16.9351   18.9374 C   0  0  0  0  0  0  0  0  0  0  0  0
   -7.3506  -16.2850   19.2362 C   0  0  0  0  0  0  0  0  0  0  0  0
   -8.3087  -16.8462   20.1295 C   0  0  0  0  0  0  0  0  0  0  0  0
   -8.1308  -18.1239   20.6761 C   0  0  0  0  0  0  0  0  0  0  0  0
   -9.1004  -18.6264   21.6045 N   0  0  0  0  0  0  0  0  0  0  0  0
   -9.7022  -17.8713   22.5941 C   0  0  0  0  0  0  0  0  0  0  0  0
  -10.6926  -18.4929   23.1945 N   0  0  0  0  0  0  0  0  0  0  0  0
  -10.7675  -19.7127   22.5720 C   0  0  0  0  0  0  0  0  0  0  0  0
  -11.6853  -20.7476   22.8091 C   0  0  0  0  0  0  0  0  0  0  0  0
  -11.6408  -21.8663   21.9867 C   0  0  0  0  0  0  0  0  0  0  0  0
  -10.6705  -21.9666   20.9905 C   0  0  0  0  0  0  0  0  0  0  0  0
   -9.6886  -20.9861   20.8040 C   0  0  0  0  0  0  0  0  0  0  0  0
   -9.7669  -19.8460   21.6051 C   0  0  0  0  0  0  0  0  0  0  0  0
   -6.9946  -18.8381   20.2762 C   0  0  0  0  0  0  0  0  0  0  0  0
   -6.0001  -18.2348   19.4379 C   0  0  0  0  0  0  0  0  0  0  0  0
   -2.8722  -15.3271   17.5148 C   0  0  0  0  0  0  0  0  0  0  0  0
   -3.1710  -13.9059   17.4335 C   0  0  0  0  0  0  0  0  0  0  0  0
   -2.1372  -13.1282   16.9323 C   0  0  0  0  0  0  0  0  0  0  0  0
   -0.7714  -14.0647   16.5265 S   0  0  0  0  0  0  0  0  0  0  0  0
   -1.5512  -15.4940   17.0793 C   0  0  0  0  0  0  0  0  0  0  0  0
   -5.3037  -15.2829   17.8966 H   0  0  0  0  0  0  0  0  0  0  0  0
   -7.5466  -15.2907   18.8408 H   0  0  0  0  0  0  0  0  0  0  0  0
   -9.2023  -16.2646   20.3508 H   0  0  0  0  0  0  0  0  0  0  0  0
   -9.3582  -16.8729   22.8306 H   0  0  0  0  0  0  0  0  0  0  0  0
  -12.4464  -20.6563   23.5768 H   0  0  0  0  0  0  0  0  0  0  0  0
  -12.3883  -22.6461   22.1070 H   0  0  0  0  0  0  0  0  0  0  0  0
  -10.6832  -22.8195   20.3147 H   0  0  0  0  0  0  0  0  0  0  0  0
   -8.9536  -21.0837   20.0115 H   0  0  0  0  0  0  0  0  0  0  0  0
   -6.7908  -19.8312   20.6764 H   0  0  0  0  0  0  0  0  0  0  0  0
   -5.0945  -18.8055   19.2348 H   0  0  0  0  0  0  0  0  0  0  0  0
   -4.1059  -13.4584   17.7439 H   0  0  0  0  0  0  0  0  0  0  0  0
   -2.1274  -12.0570   16.7812 H   0  0  0  0  0  0  0  0  0  0  0  0
   -1.0025  -16.4274   17.0466 H   0  0  0  0  0  0  0  0  0  0  0  0
  1  2  2  0
  2  3  1  0
  3  4  1  0
  4  5  2  0
  5  6  1  0
  6  7  2  0
  7  8  1  0
  8  9  1  0
  9 10  2  0
 10 11  1  0
 11 12  2  0
 12 13  1  0
 13 14  2  0
 14 15  1  0
 15 16  2  0
  7 17  1  0
 17 18  2  0
  2 19  1  0
 19 20  1  0
 20 21  2  0
 21 22  1  0
 22 23  1  0
 18  4  1  0
 23 19  2  0
 16  8  1  0
 16 11  1  0
  3 24  1  0
  5 25  1  0
  6 26  1  0
  9 27  1  0
 12 28  1  0
 13 29  1  0
 14 30  1  0
 15 31  1  0
 17 32  1  0
 18 33  1  0
 20 34  1  0
 21 35  1  0
 23 36  1  0
M  END
>  <Energy>  (311) 
70.02244241350293

>  <compound_id>  (311) 
4919

>  <target_id>  (311) 
1

>  <reference_id>  (311) 
94

>  <inspiration_ids>  (311) 
[94, 66]

>  <energy_score>  (311) 
-18.34443092857839

>  <distance_score>  (311) 
15.524642764904979

>  <path>  (311) 
/opt/xchem-fragalysis-2/maxwin/BulkDock/SCRATCH/511016/C4919-P94/C4919-P94.minimised.mol

>  <scratch_subdir>  (311) 
/opt/xchem-fragalysis-2/maxwin/BulkDock/SCRATCH/511016/C4919-P94

>  <fragmenstein_runtime>  (311) 
26.787524938583374

>  <fragmenstein_outcome>  (311) 
too moved

>  <fragmenstein_mode>  (311) 
expansion

>  <fragmenstein_error>  (311) 


$$$$
C4919-P66
     RDKit          3D

 36 39  0  0  0  0  0  0  0  0999 V2000
   -0.2192  -14.1774   22.4719 O   0  0  0  0  0  0  0  0  0  0  0  0
   -0.1728  -14.2284   23.6126 C   0  0  0  0  0  0  0  0  0  0  0  0
   -1.8412  -15.0100   24.3142 N   0  0  0  0  0  0  0  0  0  0  0  0
   -3.5283  -15.5265   23.4435 C   0  0  0  0  0  0  0  0  0  0  0  0
   -4.0907  -16.4424   21.8969 C   0  0  0  0  0  0  0  0  0  0  0  0
   -5.4816  -17.5053   21.3832 C   0  0  0  0  0  0  0  0  0  0  0  0
   -6.4604  -18.0089   22.3373 C   0  0  0  0  0  0  0  0  0  0  0  0
   -7.5161  -18.9095   22.0276 N   0  0  0  0  0  0  0  0  0  0  0  0
   -7.3208  -20.1577   21.4709 C   0  0  0  0  0  0  0  0  0  0  0  0
   -8.4106  -20.8918   21.4334 N   0  0  0  0  0  0  0  0  0  0  0  0
   -9.4020  -20.0660   21.8768 C   0  0  0  0  0  0  0  0  0  0  0  0
  -10.7683  -20.3572   22.0289 C   0  0  0  0  0  0  0  0  0  0  0  0
  -11.6332  -19.3413   22.4337 C   0  0  0  0  0  0  0  0  0  0  0  0
  -11.1425  -18.0593   22.6840 C   0  0  0  0  0  0  0  0  0  0  0  0
   -9.7676  -17.7713   22.6157 C   0  0  0  0  0  0  0  0  0  0  0  0
   -8.8970  -18.8057   22.2316 C   0  0  0  0  0  0  0  0  0  0  0  0
   -6.4177  -17.1231   23.5143 C   0  0  0  0  0  0  0  0  0  0  0  0
   -5.2329  -15.5287   23.9028 C   0  0  0  0  0  0  0  0  0  0  0  0
    1.5796  -13.4527   24.2055 C   0  0  0  0  0  0  0  0  0  0  0  0
    3.1933  -14.0683   23.6174 C   0  0  0  0  0  0  0  0  0  0  0  0
    4.3010  -13.3648   23.1782 C   0  0  0  0  0  0  0  0  0  0  0  0
    3.6450  -12.0709   22.3185 S   0  0  0  0  0  0  0  0  0  0  0  0
    2.1632  -12.1633   23.6851 C   0  0  0  0  0  0  0  0  0  0  0  0
   -1.8115  -14.9586   25.3069 H   0  0  0  0  0  0  0  0  0  0  0  0
   -3.4382  -16.4186   20.9712 H   0  0  0  0  0  0  0  0  0  0  0  0
   -5.4786  -17.8173   20.3344 H   0  0  0  0  0  0  0  0  0  0  0  0
   -6.3453  -20.4947   21.1485 H   0  0  0  0  0  0  0  0  0  0  0  0
  -11.1374  -21.3504   21.7956 H   0  0  0  0  0  0  0  0  0  0  0  0
  -12.6979  -19.5484   22.5192 H   0  0  0  0  0  0  0  0  0  0  0  0
  -11.8391  -17.2655   22.9504 H   0  0  0  0  0  0  0  0  0  0  0  0
   -9.4118  -16.7653   22.8080 H   0  0  0  0  0  0  0  0  0  0  0  0
   -7.4952  -16.9175   23.7823 H   0  0  0  0  0  0  0  0  0  0  0  0
   -5.6077  -14.5385   23.5271 H   0  0  0  0  0  0  0  0  0  0  0  0
    3.3433  -15.1236   23.5036 H   0  0  0  0  0  0  0  0  0  0  0  0
    5.2794  -13.7516   22.9320 H   0  0  0  0  0  0  0  0  0  0  0  0
    1.4671  -11.6229   23.0928 H   0  0  0  0  0  0  0  0  0  0  0  0
  1  2  2  0
  2  3  1  0
  3  4  1  0
  4  5  2  0
  5  6  1  0
  6  7  2  0
  7  8  1  0
  8  9  1  0
  9 10  2  0
 10 11  1  0
 11 12  2  0
 12 13  1  0
 13 14  2  0
 14 15  1  0
 15 16  2  0
  7 17  1  0
 17 18  2  0
  2 19  1  0
 19 20  1  0
 20 21  2  0
 21 22  1  0
 22 23  1  0
 18  4  1  0
 23 19  2  0
 16  8  1  0
 16 11  1  0
  3 24  1  0
  5 25  1  0
  6 26  1  0
  9 27  1  0
 12 28  1  0
 13 29  1  0
 14 30  1  0
 15 31  1  0
 17 32  1  0
 18 33  1  0
 20 34  1  0
 21 35  1  0
 23 36  1  0
M  END
>  <Energy>  (312) 
888.04794028764138

>  <compound_id>  (312) 
4919

>  <target_id>  (312) 
1

>  <reference_id>  (312) 
66

>  <inspiration_ids>  (312) 
[94, 66]

>  <energy_score>  (312) 
799.6810669455449

>  <distance_score>  (312) 
14.203023372072153

>  <path>  (312) 
/opt/xchem-fragalysis-2/maxwin/BulkDock/SCRATCH/511016/C4919-P66/C4919-P66.minimised.mol

>  <scratch_subdir>  (312) 
/opt/xchem-fragalysis-2/maxwin/BulkDock/SCRATCH/511016/C4919-P66

>  <fragmenstein_runtime>  (312) 
22.835618495941162

>  <fragmenstein_outcome>  (312) 
too moved

>  <fragmenstein_mode>  (312) 
expansion

>  <fragmenstein_error>  (312) 


$$$$
C4920-P94
     RDKit          3D

 53 56  0  0  0  0  0  0  0  0999 V2000
    6.7484  -12.9418   26.7733 C   0  0  0  0  0  0  0  0  0  0  0  0
    5.9304  -12.7856   25.5696 C   0  0  0  0  0  0  0  0  0  0  0  0
    6.3751  -11.8753   24.8813 O   0  0  0  0  0  0  0  0  0  0  0  0
    4.5239  -13.7174   25.3723 N   0  0  0  0  0  0  0  0  0  0  0  0
    3.1835  -13.5538   24.1586 C   0  0  0  0  0  0  0  0  0  0  0  0
    2.5955  -14.5814   23.2014 C   0  0  0  0  0  0  0  0  0  0  0  0
    0.8470  -14.9338   22.3099 N   0  0  0  0  0  0  0  0  0  0  0  0
   -0.9256  -14.7678   23.3017 C   0  0  0  0  0  0  0  0  0  0  0  0
   -2.0701  -15.4233   24.8219 C   0  0  0  0  0  0  0  0  0  0  0  0
   -2.1330  -14.8105   26.2948 C   0  0  0  0  0  0  0  0  0  0  0  0
   -2.6285  -15.4718   27.9829 C   0  0  0  0  0  0  0  0  0  0  0  0
   -3.9497  -16.4915   28.5466 C   0  0  0  0  0  0  0  0  0  0  0  0
   -5.4727  -17.2805   29.6520 N   0  0  0  0  0  0  0  0  0  0  0  0
   -5.9427  -17.1013   31.4690 C   0  0  0  0  0  0  0  0  0  0  0  0
   -6.1163  -18.2701   32.3214 N   0  0  0  0  0  0  0  0  0  0  0  0
   -6.0978  -19.8807   31.5246 C   0  0  0  0  0  0  0  0  0  0  0  0
   -7.4512  -21.2051   32.2612 C   0  0  0  0  0  0  0  0  0  0  0  0
   -9.3655  -21.0497   31.6382 C   0  0  0  0  0  0  0  0  0  0  0  0
   -9.7630  -20.5518   29.7846 C   0  0  0  0  0  0  0  0  0  0  0  0
   -8.2105  -19.4088   28.8968 C   0  0  0  0  0  0  0  0  0  0  0  0
   -6.7987  -18.6614   30.1214 C   0  0  0  0  0  0  0  0  0  0  0  0
   -3.2256  -17.1549   27.2648 C   0  0  0  0  0  0  0  0  0  0  0  0
   -2.5874  -16.7798   25.5906 C   0  0  0  0  0  0  0  0  0  0  0  0
    1.6165  -15.2980   20.5214 C   0  0  0  0  0  0  0  0  0  0  0  0
    2.3737  -14.7580   18.7522 C   0  0  0  0  0  0  0  0  0  0  0  0
    1.6669  -15.1192   17.4899 C   0  0  0  0  0  0  0  0  0  0  0  0
    2.2257  -14.6275   16.3265 C   0  0  0  0  0  0  0  0  0  0  0  0
    3.6597  -13.7703   16.6017 S   0  0  0  0  0  0  0  0  0  0  0  0
    3.5352  -14.0627   18.2810 C   0  0  0  0  0  0  0  0  0  0  0  0
    7.4868  -13.7263   26.6893 H   0  0  0  0  0  0  0  0  0  0  0  0
    7.3626  -12.0368   26.9019 H   0  0  0  0  0  0  0  0  0  0  0  0
    6.0363  -12.8514   27.5896 H   0  0  0  0  0  0  0  0  0  0  0  0
    4.4055  -14.3297   26.1629 H   0  0  0  0  0  0  0  0  0  0  0  0
    2.3079  -13.1358   24.6660 H   0  0  0  0  0  0  0  0  0  0  0  0
    3.4167  -12.7146   23.5128 H   0  0  0  0  0  0  0  0  0  0  0  0
    3.1198  -14.2817   22.3144 H   0  0  0  0  0  0  0  0  0  0  0  0
    3.2266  -15.4634   23.3591 H   0  0  0  0  0  0  0  0  0  0  0  0
   -1.3861  -14.8196   22.3671 H   0  0  0  0  0  0  0  0  0  0  0  0
   -0.4384  -14.0718   23.8866 H   0  0  0  0  0  0  0  0  0  0  0  0
   -2.5373  -13.8173   26.0421 H   0  0  0  0  0  0  0  0  0  0  0  0
   -2.2297  -14.8418   28.7978 H   0  0  0  0  0  0  0  0  0  0  0  0
   -5.9085  -16.0848   31.7565 H   0  0  0  0  0  0  0  0  0  0  0  0
   -7.3684  -21.1830   33.3637 H   0  0  0  0  0  0  0  0  0  0  0  0
  -10.1784  -21.5766   32.1533 H   0  0  0  0  0  0  0  0  0  0  0  0
  -10.7133  -20.8599   29.3523 H   0  0  0  0  0  0  0  0  0  0  0  0
   -8.4595  -18.5977   28.1542 H   0  0  0  0  0  0  0  0  0  0  0  0
   -2.9840  -18.2079   27.3413 H   0  0  0  0  0  0  0  0  0  0  0  0
   -2.1420  -17.7533   25.3602 H   0  0  0  0  0  0  0  0  0  0  0  0
    0.9522  -16.1609   20.3219 H   0  0  0  0  0  0  0  0  0  0  0  0
    2.4713  -14.7656   20.7847 H   0  0  0  0  0  0  0  0  0  0  0  0
    0.7495  -15.6978   17.4861 H   0  0  0  0  0  0  0  0  0  0  0  0
    1.8502  -14.7503   15.3204 H   0  0  0  0  0  0  0  0  0  0  0  0
    4.3210  -13.5810   18.8473 H   0  0  0  0  0  0  0  0  0  0  0  0
  1  2  1  0
  2  3  2  0
  2  4  1  0
  4  5  1  0
  5  6  1  0
  6  7  1  0
  7  8  1  0
  8  9  1  0
  9 10  2  0
 10 11  1  0
 11 12  2  0
 12 13  1  0
 13 14  1  0
 14 15  2  0
 15 16  1  0
 16 17  2  0
 17 18  1  0
 18 19  2  0
 19 20  1  0
 20 21  2  0
 12 22  1  0
 22 23  2  0
  7 24  1  0
 24 25  1  0
 25 26  1  0
 26 27  2  0
 27 28  1  0
 28 29  1  0
 23  9  1  0
 29 25  2  0
 21 13  1  0
 21 16  1  0
  1 30  1  0
  1 31  1  0
  1 32  1  0
  4 33  1  0
  5 34  1  0
  5 35  1  0
  6 36  1  0
  6 37  1  0
  8 38  1  0
  8 39  1  0
 10 40  1  0
 11 41  1  0
 14 42  1  0
 17 43  1  0
 18 44  1  0
 19 45  1  0
 20 46  1  0
 22 47  1  0
 23 48  1  0
 24 49  1  0
 24 50  1  0
 26 51  1  0
 27 52  1  0
 29 53  1  0
M  END
>  <Energy>  (313) 
2373.8910183364783

>  <compound_id>  (313) 
4920

>  <target_id>  (313) 
1

>  <reference_id>  (313) 
94

>  <inspiration_ids>  (313) 
[94, 66]

>  <energy_score>  (313) 
2260.5500149786494

>  <distance_score>  (313) 
12.322760088558452

>  <path>  (313) 
/opt/xchem-fragalysis-2/maxwin/BulkDock/SCRATCH/511016/C4920-P94/C4920-P94.minimised.mol

>  <scratch_subdir>  (313) 
/opt/xchem-fragalysis-2/maxwin/BulkDock/SCRATCH/511016/C4920-P94

>  <fragmenstein_runtime>  (313) 
47.570241928100586

>  <fragmenstein_outcome>  (313) 
too moved

>  <fragmenstein_mode>  (313) 
expansion

>  <fragmenstein_error>  (313) 


$$$$
C4920-P66
     RDKit          3D

 53 56  0  0  0  0  0  0  0  0999 V2000
    3.7765   -9.6341   32.3394 C   0  0  0  0  0  0  0  0  0  0  0  0
    2.4298   -9.1904   31.8028 C   0  0  0  0  0  0  0  0  0  0  0  0
    1.8622   -8.2744   32.3438 O   0  0  0  0  0  0  0  0  0  0  0  0
    2.0152  -10.0489   30.6572 N   0  0  0  0  0  0  0  0  0  0  0  0
    0.5620  -10.1150   29.7920 C   0  0  0  0  0  0  0  0  0  0  0  0
    0.1938  -10.3397   28.2395 C   0  0  0  0  0  0  0  0  0  0  0  0
    1.0537  -11.3608   27.2573 N   0  0  0  0  0  0  0  0  0  0  0  0
    0.3975  -13.2815   26.9482 C   0  0  0  0  0  0  0  0  0  0  0  0
   -0.8572  -14.7027   28.0111 C   0  0  0  0  0  0  0  0  0  0  0  0
   -2.1142  -15.5699   27.6504 C   0  0  0  0  0  0  0  0  0  0  0  0
   -3.6156  -16.2688   28.4127 C   0  0  0  0  0  0  0  0  0  0  0  0
   -4.5043  -16.0957   29.8772 C   0  0  0  0  0  0  0  0  0  0  0  0
   -5.8460  -16.5666   31.2423 N   0  0  0  0  0  0  0  0  0  0  0  0
   -5.8157  -16.1675   32.6247 C   0  0  0  0  0  0  0  0  0  0  0  0
   -6.9678  -16.0277   33.2462 N   0  0  0  0  0  0  0  0  0  0  0  0
   -7.1689  -17.2929   33.3648 C   0  0  0  0  0  0  0  0  0  0  0  0
   -7.6317  -17.9170   34.5245 C   0  0  0  0  0  0  0  0  0  0  0  0
   -7.1327  -19.1715   34.8442 C   0  0  0  0  0  0  0  0  0  0  0  0
   -6.3643  -19.8815   33.9599 C   0  0  0  0  0  0  0  0  0  0  0  0
   -5.9587  -19.3192   32.7320 C   0  0  0  0  0  0  0  0  0  0  0  0
   -6.4154  -17.8779   32.3236 C   0  0  0  0  0  0  0  0  0  0  0  0
   -3.1596  -15.4538   30.2723 C   0  0  0  0  0  0  0  0  0  0  0  0
   -1.5855  -14.8539   29.5139 C   0  0  0  0  0  0  0  0  0  0  0  0
    2.5039  -10.5959   28.2238 C   0  0  0  0  0  0  0  0  0  0  0  0
    4.3987  -10.2044   28.2418 C   0  0  0  0  0  0  0  0  0  0  0  0
    5.4455  -11.2421   28.3577 C   0  0  0  0  0  0  0  0  0  0  0  0
    6.7504  -10.8786   28.0924 C   0  0  0  0  0  0  0  0  0  0  0  0
    6.8866   -9.2287   27.7953 S   0  0  0  0  0  0  0  0  0  0  0  0
    5.1903   -9.0412   28.0299 C   0  0  0  0  0  0  0  0  0  0  0  0
    4.5291   -9.6298   31.5479 H   0  0  0  0  0  0  0  0  0  0  0  0
    3.6862  -10.6206   32.7994 H   0  0  0  0  0  0  0  0  0  0  0  0
    4.1052   -8.9292   33.1099 H   0  0  0  0  0  0  0  0  0  0  0  0
    2.7064  -10.7785   30.5227 H   0  0  0  0  0  0  0  0  0  0  0  0
    0.1563  -11.0062   30.1948 H   0  0  0  0  0  0  0  0  0  0  0  0
   -0.0686   -9.2706   30.0992 H   0  0  0  0  0  0  0  0  0  0  0  0
    0.2968   -9.3232   27.8339 H   0  0  0  0  0  0  0  0  0  0  0  0
   -0.8847  -10.4320   28.1353 H   0  0  0  0  0  0  0  0  0  0  0  0
    1.3465  -13.7293   26.5813 H   0  0  0  0  0  0  0  0  0  0  0  0
   -0.0601  -13.1415   26.0223 H   0  0  0  0  0  0  0  0  0  0  0  0
   -1.9300  -16.5553   27.1682 H   0  0  0  0  0  0  0  0  0  0  0  0
   -3.7975  -17.0348   27.6312 H   0  0  0  0  0  0  0  0  0  0  0  0
   -4.8239  -16.1229   33.0430 H   0  0  0  0  0  0  0  0  0  0  0  0
   -8.1152  -17.3104   35.2838 H   0  0  0  0  0  0  0  0  0  0  0  0
   -7.2248  -19.5553   35.8546 H   0  0  0  0  0  0  0  0  0  0  0  0
   -5.8862  -20.7546   34.3428 H   0  0  0  0  0  0  0  0  0  0  0  0
   -5.2754  -19.9243   32.1506 H   0  0  0  0  0  0  0  0  0  0  0  0
   -2.8419  -15.7642   31.3177 H   0  0  0  0  0  0  0  0  0  0  0  0
   -0.8547  -14.8276   30.3615 H   0  0  0  0  0  0  0  0  0  0  0  0
    2.1889   -9.5873   28.2730 H   0  0  0  0  0  0  0  0  0  0  0  0
    2.5145  -11.2973   29.0201 H   0  0  0  0  0  0  0  0  0  0  0  0
    5.1891  -12.2724   28.5355 H   0  0  0  0  0  0  0  0  0  0  0  0
    7.6235  -11.5165   28.0753 H   0  0  0  0  0  0  0  0  0  0  0  0
    4.9550   -8.0116   27.8319 H   0  0  0  0  0  0  0  0  0  0  0  0
  1  2  1  0
  2  3  2  0
  2  4  1  0
  4  5  1  0
  5  6  1  0
  6  7  1  0
  7  8  1  0
  8  9  1  0
  9 10  2  0
 10 11  1  0
 11 12  2  0
 12 13  1  0
 13 14  1  0
 14 15  2  0
 15 16  1  0
 16 17  2  0
 17 18  1  0
 18 19  2  0
 19 20  1  0
 20 21  2  0
 12 22  1  0
 22 23  2  0
  7 24  1  0
 24 25  1  0
 25 26  1  0
 26 27  2  0
 27 28  1  0
 28 29  1  0
 23  9  1  0
 29 25  2  0
 21 13  1  0
 21 16  1  0
  1 30  1  0
  1 31  1  0
  1 32  1  0
  4 33  1  0
  5 34  1  0
  5 35  1  0
  6 36  1  0
  6 37  1  0
  8 38  1  0
  8 39  1  0
 10 40  1  0
 11 41  1  0
 14 42  1  0
 17 43  1  0
 18 44  1  0
 19 45  1  0
 20 46  1  0
 22 47  1  0
 23 48  1  0
 24 49  1  0
 24 50  1  0
 26 51  1  0
 27 52  1  0
 29 53  1  0
M  END
>  <Energy>  (314) 
1223.2159322505056

>  <compound_id>  (314) 
4920

>  <target_id>  (314) 
1

>  <reference_id>  (314) 
66

>  <inspiration_ids>  (314) 
[94, 66]

>  <energy_score>  (314) 
1109.8749288926651

>  <distance_score>  (314) 
12.910628876911677

>  <path>  (314) 
/opt/xchem-fragalysis-2/maxwin/BulkDock/SCRATCH/511016/C4920-P66/C4920-P66.minimised.mol

>  <scratch_subdir>  (314) 
/opt/xchem-fragalysis-2/maxwin/BulkDock/SCRATCH/511016/C4920-P66

>  <fragmenstein_runtime>  (314) 
65.54074096679688

>  <fragmenstein_outcome>  (314) 
too moved

>  <fragmenstein_mode>  (314) 
expansion

>  <fragmenstein_error>  (314) 


$$$$
C4921-P94
     RDKit          3D

 51 54  0  0  0  0  0  0  0  0999 V2000
    2.8847  -14.0821   23.3936 C   0  0  0  0  0  0  0  0  0  0  0  0
    2.0930  -13.1453   24.1531 N   0  0  0  0  0  0  0  0  0  0  0  0
    2.2343  -11.9797   23.4198 C   0  0  0  0  0  0  0  0  0  0  0  0
    1.1627  -13.7592   25.4812 C   0  0  0  0  0  0  0  0  0  0  0  0
   -0.8733  -14.4704   24.8425 C   0  0  0  0  0  0  0  0  0  0  0  0
   -2.4510  -15.7141   25.4163 N   0  0  0  0  0  0  0  0  0  0  0  0
   -3.2126  -17.0778   26.8419 C   0  0  0  0  0  0  0  0  0  0  0  0
   -5.0288  -18.1169   27.4458 C   0  0  0  0  0  0  0  0  0  0  0  0
   -6.5493  -17.3869   28.3153 C   0  0  0  0  0  0  0  0  0  0  0  0
   -8.1604  -18.0747   28.4539 C   0  0  0  0  0  0  0  0  0  0  0  0
   -8.6875  -19.6378   28.2336 C   0  0  0  0  0  0  0  0  0  0  0  0
  -10.1124  -20.8328   28.9174 N   0  0  0  0  0  0  0  0  0  0  0  0
  -10.6889  -20.9995   30.2758 C   0  0  0  0  0  0  0  0  0  0  0  0
  -11.3271  -22.0973   30.5795 N   0  0  0  0  0  0  0  0  0  0  0  0
  -11.2730  -22.8344   29.4719 C   0  0  0  0  0  0  0  0  0  0  0  0
  -11.5732  -24.2036   29.3440 C   0  0  0  0  0  0  0  0  0  0  0  0
  -11.6396  -24.7630   28.0783 C   0  0  0  0  0  0  0  0  0  0  0  0
  -11.6094  -23.9009   27.0038 C   0  0  0  0  0  0  0  0  0  0  0  0
  -11.2860  -22.5464   27.1907 C   0  0  0  0  0  0  0  0  0  0  0  0
  -10.7795  -22.0730   28.3945 C   0  0  0  0  0  0  0  0  0  0  0  0
   -7.2830  -20.4836   27.4822 C   0  0  0  0  0  0  0  0  0  0  0  0
   -5.7613  -19.6480   26.8347 C   0  0  0  0  0  0  0  0  0  0  0  0
    3.1700  -14.2098   26.0576 C   0  0  0  0  0  0  0  0  0  0  0  0
    4.4864  -15.1441   25.2778 C   0  0  0  0  0  0  0  0  0  0  0  0
    5.7645  -15.3783   25.7288 C   0  0  0  0  0  0  0  0  0  0  0  0
    5.9002  -14.6555   27.1874 S   0  0  0  0  0  0  0  0  0  0  0  0
    4.2701  -14.0821   27.0542 C   0  0  0  0  0  0  0  0  0  0  0  0
    1.9971  -14.6550   23.3187 H   0  0  0  0  0  0  0  0  0  0  0  0
    3.3388  -15.0533   23.2582 H   0  0  0  0  0  0  0  0  0  0  0  0
    3.6565  -13.7724   24.0326 H   0  0  0  0  0  0  0  0  0  0  0  0
    2.9139  -11.2091   23.1108 H   0  0  0  0  0  0  0  0  0  0  0  0
    1.3149  -11.7162   22.8803 H   0  0  0  0  0  0  0  0  0  0  0  0
    3.0029  -12.3676   22.7655 H   0  0  0  0  0  0  0  0  0  0  0  0
    1.0465  -12.9736   26.2128 H   0  0  0  0  0  0  0  0  0  0  0  0
   -0.8603  -14.5406   23.7724 H   0  0  0  0  0  0  0  0  0  0  0  0
   -1.4498  -13.6531   25.2909 H   0  0  0  0  0  0  0  0  0  0  0  0
   -2.8875  -16.0050   24.5488 H   0  0  0  0  0  0  0  0  0  0  0  0
   -3.0048  -16.5293   27.7564 H   0  0  0  0  0  0  0  0  0  0  0  0
   -2.3949  -17.8252   26.7796 H   0  0  0  0  0  0  0  0  0  0  0  0
   -6.6204  -16.2915   28.5096 H   0  0  0  0  0  0  0  0  0  0  0  0
   -7.7876  -18.1119   29.4949 H   0  0  0  0  0  0  0  0  0  0  0  0
  -10.4662  -20.3772   31.1193 H   0  0  0  0  0  0  0  0  0  0  0  0
  -11.7899  -24.7801   30.2367 H   0  0  0  0  0  0  0  0  0  0  0  0
  -11.8904  -25.8091   27.9514 H   0  0  0  0  0  0  0  0  0  0  0  0
  -11.9055  -24.2439   26.0163 H   0  0  0  0  0  0  0  0  0  0  0  0
  -11.4787  -21.8520   26.3966 H   0  0  0  0  0  0  0  0  0  0  0  0
   -7.3738  -21.5920   27.4604 H   0  0  0  0  0  0  0  0  0  0  0  0
   -5.1977  -20.1862   26.0588 H   0  0  0  0  0  0  0  0  0  0  0  0
    4.4230  -15.6620   24.3391 H   0  0  0  0  0  0  0  0  0  0  0  0
    6.5521  -15.9470   25.2541 H   0  0  0  0  0  0  0  0  0  0  0  0
    4.5018  -13.2545   27.7026 H   0  0  0  0  0  0  0  0  0  0  0  0
  1  2  1  0
  2  3  1  0
  2  4  1  0
  4  5  1  0
  5  6  1  0
  6  7  1  0
  7  8  1  0
  8  9  2  0
  9 10  1  0
 10 11  2  0
 11 12  1  0
 12 13  1  0
 13 14  2  0
 14 15  1  0
 15 16  2  0
 16 17  1  0
 17 18  2  0
 18 19  1  0
 19 20  2  0
 11 21  1  0
 21 22  2  0
  4 23  1  0
 23 24  1  0
 24 25  2  0
 25 26  1  0
 26 27  1  0
 22  8  1  0
 27 23  2  0
 20 12  1  0
 20 15  1  0
  1 28  1  0
  1 29  1  0
  1 30  1  0
  3 31  1  0
  3 32  1  0
  3 33  1  0
  4 34  1  0
  5 35  1  0
  5 36  1  0
  6 37  1  0
  7 38  1  0
  7 39  1  0
  9 40  1  0
 10 41  1  0
 13 42  1  0
 16 43  1  0
 17 44  1  0
 18 45  1  0
 19 46  1  0
 21 47  1  0
 22 48  1  0
 24 49  1  0
 25 50  1  0
 27 51  1  0
M  END
>  <Energy>  (315) 
1694.1834195837398

>  <compound_id>  (315) 
4921

>  <target_id>  (315) 
1

>  <reference_id>  (315) 
94

>  <inspiration_ids>  (315) 
[94, 66]

>  <energy_score>  (315) 
1527.6264448618197

>  <distance_score>  (315) 
12.2358166550688

>  <path>  (315) 
/opt/xchem-fragalysis-2/maxwin/BulkDock/SCRATCH/511016/C4921-P94/C4921-P94.minimised.mol

>  <scratch_subdir>  (315) 
/opt/xchem-fragalysis-2/maxwin/BulkDock/SCRATCH/511016/C4921-P94

>  <fragmenstein_runtime>  (315) 
30.485328435897827

>  <fragmenstein_outcome>  (315) 
too moved

>  <fragmenstein_mode>  (315) 
expansion

>  <fragmenstein_error>  (315) 


$$$$
C4921-P66
     RDKit          3D

 51 54  0  0  0  0  0  0  0  0999 V2000
   -2.7997   -7.1189   21.8384 C   0  0  0  0  0  0  0  0  0  0  0  0
   -1.9425   -8.2507   22.1700 N   0  0  0  0  0  0  0  0  0  0  0  0
   -0.5231   -7.9476   22.0404 C   0  0  0  0  0  0  0  0  0  0  0  0
   -2.3841   -9.5952   21.7333 C   0  0  0  0  0  0  0  0  0  0  0  0
   -3.8052  -10.2568   22.8315 C   0  0  0  0  0  0  0  0  0  0  0  0
   -4.4118  -11.5647   24.2144 N   0  0  0  0  0  0  0  0  0  0  0  0
   -6.0877  -12.3218   24.6675 C   0  0  0  0  0  0  0  0  0  0  0  0
   -6.8983  -13.6312   25.9335 C   0  0  0  0  0  0  0  0  0  0  0  0
   -7.3931  -13.5505   27.2258 C   0  0  0  0  0  0  0  0  0  0  0  0
   -8.6294  -14.3081   27.7265 C   0  0  0  0  0  0  0  0  0  0  0  0
   -9.4983  -15.0610   26.9511 C   0  0  0  0  0  0  0  0  0  0  0  0
  -10.8907  -15.3010   27.1869 N   0  0  0  0  0  0  0  0  0  0  0  0
  -11.7927  -15.4241   26.1392 C   0  0  0  0  0  0  0  0  0  0  0  0
  -13.0484  -15.3890   26.5012 N   0  0  0  0  0  0  0  0  0  0  0  0
  -12.9993  -15.2119   27.8440 C   0  0  0  0  0  0  0  0  0  0  0  0
  -14.0695  -14.9497   28.7074 C   0  0  0  0  0  0  0  0  0  0  0  0
  -13.8174  -14.8034   30.0679 C   0  0  0  0  0  0  0  0  0  0  0  0
  -12.5349  -14.9840   30.5563 C   0  0  0  0  0  0  0  0  0  0  0  0
  -11.4545  -15.1865   29.6895 C   0  0  0  0  0  0  0  0  0  0  0  0
  -11.6868  -15.2568   28.3211 C   0  0  0  0  0  0  0  0  0  0  0  0
   -8.9769  -15.3863   25.7427 C   0  0  0  0  0  0  0  0  0  0  0  0
   -7.7133  -14.8852   25.3358 C   0  0  0  0  0  0  0  0  0  0  0  0
   -2.5177   -9.5726   20.1691 C   0  0  0  0  0  0  0  0  0  0  0  0
   -1.8825   -8.6145   19.2492 C   0  0  0  0  0  0  0  0  0  0  0  0
   -1.9945   -8.9268   17.9146 C   0  0  0  0  0  0  0  0  0  0  0  0
   -2.8214  -10.3959   17.7119 S   0  0  0  0  0  0  0  0  0  0  0  0
   -3.0641  -10.5804   19.4030 C   0  0  0  0  0  0  0  0  0  0  0  0
   -2.6044   -6.2859   22.5242 H   0  0  0  0  0  0  0  0  0  0  0  0
   -2.6489   -6.7186   20.8332 H   0  0  0  0  0  0  0  0  0  0  0  0
   -3.8594   -7.3690   21.9210 H   0  0  0  0  0  0  0  0  0  0  0  0
   -0.1374   -7.5995   23.0042 H   0  0  0  0  0  0  0  0  0  0  0  0
    0.0682   -8.8139   21.7340 H   0  0  0  0  0  0  0  0  0  0  0  0
   -0.3173   -7.1482   21.3207 H   0  0  0  0  0  0  0  0  0  0  0  0
   -1.5344  -10.2756   21.8391 H   0  0  0  0  0  0  0  0  0  0  0  0
   -4.5666  -10.1362   22.0415 H   0  0  0  0  0  0  0  0  0  0  0  0
   -3.4862   -9.5681   23.5708 H   0  0  0  0  0  0  0  0  0  0  0  0
   -3.6526  -12.1912   24.4151 H   0  0  0  0  0  0  0  0  0  0  0  0
   -6.2219  -12.6612   23.6417 H   0  0  0  0  0  0  0  0  0  0  0  0
   -6.7183  -11.4808   24.9839 H   0  0  0  0  0  0  0  0  0  0  0  0
   -6.8511  -12.9706   27.9379 H   0  0  0  0  0  0  0  0  0  0  0  0
   -8.9382  -14.1178   28.7362 H   0  0  0  0  0  0  0  0  0  0  0  0
  -11.4999  -15.4721   25.1012 H   0  0  0  0  0  0  0  0  0  0  0  0
  -15.0770  -14.8765   28.3144 H   0  0  0  0  0  0  0  0  0  0  0  0
  -14.6344  -14.5897   30.7493 H   0  0  0  0  0  0  0  0  0  0  0  0
  -12.3553  -14.9048   31.6275 H   0  0  0  0  0  0  0  0  0  0  0  0
  -10.4571  -15.1450   30.0894 H   0  0  0  0  0  0  0  0  0  0  0  0
   -9.5429  -15.9114   24.9815 H   0  0  0  0  0  0  0  0  0  0  0  0
   -7.5132  -15.2131   24.3091 H   0  0  0  0  0  0  0  0  0  0  0  0
   -1.2973   -7.7604   19.5477 H   0  0  0  0  0  0  0  0  0  0  0  0
   -1.5901   -8.3868   17.0712 H   0  0  0  0  0  0  0  0  0  0  0  0
   -3.5727  -11.4619   19.7613 H   0  0  0  0  0  0  0  0  0  0  0  0
  1  2  1  0
  2  3  1  0
  2  4  1  0
  4  5  1  0
  5  6  1  0
  6  7  1  0
  7  8  1  0
  8  9  2  0
  9 10  1  0
 10 11  2  0
 11 12  1  0
 12 13  1  0
 13 14  2  0
 14 15  1  0
 15 16  2  0
 16 17  1  0
 17 18  2  0
 18 19  1  0
 19 20  2  0
 11 21  1  0
 21 22  2  0
  4 23  1  0
 23 24  1  0
 24 25  2  0
 25 26  1  0
 26 27  1  0
 22  8  1  0
 27 23  2  0
 20 12  1  0
 20 15  1  0
  1 28  1  0
  1 29  1  0
  1 30  1  0
  3 31  1  0
  3 32  1  0
  3 33  1  0
  4 34  1  0
  5 35  1  0
  5 36  1  0
  6 37  1  0
  7 38  1  0
  7 39  1  0
  9 40  1  0
 10 41  1  0
 13 42  1  0
 16 43  1  0
 17 44  1  0
 18 45  1  0
 19 46  1  0
 21 47  1  0
 22 48  1  0
 24 49  1  0
 25 50  1  0
 27 51  1  0
M  END
>  <Energy>  (316) 
490.66884514601077

>  <compound_id>  (316) 
4921

>  <target_id>  (316) 
1

>  <reference_id>  (316) 
66

>  <inspiration_ids>  (316) 
[94, 66]

>  <energy_score>  (316) 
324.11187042406164

>  <distance_score>  (316) 
13.967473903902654

>  <path>  (316) 
/opt/xchem-fragalysis-2/maxwin/BulkDock/SCRATCH/511016/C4921-P66/C4921-P66.minimised.mol

>  <scratch_subdir>  (316) 
/opt/xchem-fragalysis-2/maxwin/BulkDock/SCRATCH/511016/C4921-P66

>  <fragmenstein_runtime>  (316) 
27.172025442123413

>  <fragmenstein_outcome>  (316) 
too moved

>  <fragmenstein_mode>  (316) 
expansion

>  <fragmenstein_error>  (316) 


$$$$
C4922-P94
     RDKit          3D

 46 48  0  0  0  0  0  0  0  0999 V2000
   -2.1439  -14.2711   25.8658 C   0  0  0  0  0  0  0  0  0  0  0  0
   -1.8444  -15.1022   24.7886 C   0  0  0  0  0  0  0  0  0  0  0  0
   -0.5161  -14.3141   24.0791 C   0  0  0  0  0  0  0  0  0  0  0  0
   -2.8191  -16.3525   24.7338 C   0  0  0  0  0  0  0  0  0  0  0  0
   -2.6467  -18.3906   25.4312 C   0  0  0  0  0  0  0  0  0  0  0  0
   -4.1309  -19.9801   25.3644 N   0  0  0  0  0  0  0  0  0  0  0  0
   -5.6378  -20.4300   26.5459 C   0  0  0  0  0  0  0  0  0  0  0  0
   -5.8683  -19.6428   27.4341 O   0  0  0  0  0  0  0  0  0  0  0  0
   -6.8611  -22.0795   26.7723 C   0  0  0  0  0  0  0  0  0  0  0  0
   -7.9509  -21.5067   27.5140 C   0  0  0  0  0  0  0  0  0  0  0  0
   -9.7741  -21.6619   28.1249 C   0  0  0  0  0  0  0  0  0  0  0  0
  -10.6964  -22.6027   27.8632 C   0  0  0  0  0  0  0  0  0  0  0  0
   -9.7954  -23.4983   27.3872 C   0  0  0  0  0  0  0  0  0  0  0  0
  -10.1125  -24.8512   27.4376 N   0  0  0  0  0  0  0  0  0  0  0  0
   -9.5170  -25.2308   28.5795 C   0  0  0  0  0  0  0  0  0  0  0  0
   -8.4934  -24.4309   28.7044 N   0  0  0  0  0  0  0  0  0  0  0  0
   -8.1824  -23.1154   27.5698 C   0  0  0  0  0  0  0  0  0  0  0  0
   -3.0039  -15.2302   23.1002 N   0  0  0  0  0  0  0  0  0  0  0  0
   -2.1053  -14.5848   21.3224 C   0  0  0  0  0  0  0  0  0  0  0  0
   -2.1209  -12.7394   20.4995 C   0  0  0  0  0  0  0  0  0  0  0  0
   -1.8138  -11.3072   20.9232 C   0  0  0  0  0  0  0  0  0  0  0  0
   -2.2789  -10.2373   20.1781 C   0  0  0  0  0  0  0  0  0  0  0  0
   -2.7061  -10.7690   18.6482 S   0  0  0  0  0  0  0  0  0  0  0  0
   -2.1418  -12.3371   19.0721 C   0  0  0  0  0  0  0  0  0  0  0  0
   -2.8394  -13.4287   25.9666 H   0  0  0  0  0  0  0  0  0  0  0  0
   -2.0228  -14.7979   26.8283 H   0  0  0  0  0  0  0  0  0  0  0  0
   -1.4300  -13.5141   25.5861 H   0  0  0  0  0  0  0  0  0  0  0  0
   -1.0634  -15.6757   24.5217 H   0  0  0  0  0  0  0  0  0  0  0  0
    0.5980  -14.3472   23.8897 H   0  0  0  0  0  0  0  0  0  0  0  0
   -0.4441  -14.0502   23.0655 H   0  0  0  0  0  0  0  0  0  0  0  0
    0.2102  -14.1319   24.8434 H   0  0  0  0  0  0  0  0  0  0  0  0
   -1.9425  -16.8367   24.9150 H   0  0  0  0  0  0  0  0  0  0  0  0
   -2.4909  -18.0958   26.5480 H   0  0  0  0  0  0  0  0  0  0  0  0
   -1.6849  -18.7839   25.5924 H   0  0  0  0  0  0  0  0  0  0  0  0
   -4.0948  -20.6641   24.6214 H   0  0  0  0  0  0  0  0  0  0  0  0
   -7.5927  -20.4862   27.7333 H   0  0  0  0  0  0  0  0  0  0  0  0
  -10.1892  -20.9766   28.8772 H   0  0  0  0  0  0  0  0  0  0  0  0
  -11.7074  -22.7316   28.1894 H   0  0  0  0  0  0  0  0  0  0  0  0
  -11.0263  -25.1924   27.1907 H   0  0  0  0  0  0  0  0  0  0  0  0
   -9.8082  -26.0521   29.2190 H   0  0  0  0  0  0  0  0  0  0  0  0
   -2.0019  -15.4048   23.0707 H   0  0  0  0  0  0  0  0  0  0  0  0
   -2.3414  -15.2886   20.4871 H   0  0  0  0  0  0  0  0  0  0  0  0
   -1.1819  -14.8093   21.8164 H   0  0  0  0  0  0  0  0  0  0  0  0
   -1.1801  -10.9838   21.7256 H   0  0  0  0  0  0  0  0  0  0  0  0
   -2.2140   -9.1847   20.4167 H   0  0  0  0  0  0  0  0  0  0  0  0
   -2.0429  -12.9763   18.2004 H   0  0  0  0  0  0  0  0  0  0  0  0
  1  2  1  0
  2  3  1  0
  2  4  1  0
  4  5  1  0
  5  6  1  0
  6  7  1  0
  7  8  2  0
  7  9  1  0
  9 10  2  0
 10 11  1  0
 11 12  2  0
 12 13  1  0
 13 14  1  0
 14 15  1  0
 15 16  2  0
 16 17  1  0
  4 18  1  0
 18 19  1  0
 19 20  1  0
 20 21  1  0
 21 22  2  0
 22 23  1  0
 23 24  1  0
 17  9  1  0
 24 20  2  0
 17 13  2  0
  1 25  1  0
  1 26  1  0
  1 27  1  0
  2 28  1  0
  3 29  1  0
  3 30  1  0
  3 31  1  0
  4 32  1  0
  5 33  1  0
  5 34  1  0
  6 35  1  0
 10 36  1  0
 11 37  1  0
 12 38  1  0
 14 39  1  0
 15 40  1  0
 18 41  1  0
 19 42  1  0
 19 43  1  0
 21 44  1  0
 22 45  1  0
 24 46  1  0
M  END
>  <Energy>  (317) 
1735.0528525237801

>  <compound_id>  (317) 
4922

>  <target_id>  (317) 
1

>  <reference_id>  (317) 
94

>  <inspiration_ids>  (317) 
[94, 66]

>  <energy_score>  (317) 
1642.3076459474387

>  <distance_score>  (317) 
12.81430864201252

>  <path>  (317) 
/opt/xchem-fragalysis-2/maxwin/BulkDock/SCRATCH/511016/C4922-P94/C4922-P94.minimised.mol

>  <scratch_subdir>  (317) 
/opt/xchem-fragalysis-2/maxwin/BulkDock/SCRATCH/511016/C4922-P94

>  <fragmenstein_runtime>  (317) 
27.72857928276062

>  <fragmenstein_outcome>  (317) 
too moved

>  <fragmenstein_mode>  (317) 
expansion

>  <fragmenstein_error>  (317) 


$$$$
C4922-P66
     RDKit          3D

 46 48  0  0  0  0  0  0  0  0999 V2000
    2.9695  -13.5673   23.8466 C   0  0  0  0  0  0  0  0  0  0  0  0
    1.6185  -13.2499   24.4380 C   0  0  0  0  0  0  0  0  0  0  0  0
    1.3388  -13.1777   26.0132 C   0  0  0  0  0  0  0  0  0  0  0  0
   -0.0642  -13.8180   23.4943 C   0  0  0  0  0  0  0  0  0  0  0  0
   -1.4769  -14.7877   24.7204 C   0  0  0  0  0  0  0  0  0  0  0  0
   -2.6045  -16.3334   24.7711 N   0  0  0  0  0  0  0  0  0  0  0  0
   -2.3694  -18.0447   25.5605 C   0  0  0  0  0  0  0  0  0  0  0  0
   -1.4259  -18.3181   26.2803 O   0  0  0  0  0  0  0  0  0  0  0  0
   -3.6011  -19.7000   25.0773 C   0  0  0  0  0  0  0  0  0  0  0  0
   -2.8752  -20.7836   23.9744 C   0  0  0  0  0  0  0  0  0  0  0  0
   -3.3281  -21.9906   23.4086 C   0  0  0  0  0  0  0  0  0  0  0  0
   -4.5377  -22.4761   23.8242 C   0  0  0  0  0  0  0  0  0  0  0  0
   -5.1547  -21.8333   24.9047 C   0  0  0  0  0  0  0  0  0  0  0  0
   -5.9491  -22.5224   25.7840 N   0  0  0  0  0  0  0  0  0  0  0  0
   -6.3031  -21.6958   26.7803 C   0  0  0  0  0  0  0  0  0  0  0  0
   -5.8717  -20.4680   26.5521 N   0  0  0  0  0  0  0  0  0  0  0  0
   -4.9199  -20.5414   25.4996 C   0  0  0  0  0  0  0  0  0  0  0  0
    0.3792  -11.9734   22.7665 N   0  0  0  0  0  0  0  0  0  0  0  0
   -0.3559  -10.5267   21.9242 C   0  0  0  0  0  0  0  0  0  0  0  0
    0.0348   -8.8902   21.8338 C   0  0  0  0  0  0  0  0  0  0  0  0
   -0.5235   -7.7623   22.5345 C   0  0  0  0  0  0  0  0  0  0  0  0
    0.0652   -6.5393   22.2609 C   0  0  0  0  0  0  0  0  0  0  0  0
    1.2120   -6.6483   21.0212 S   0  0  0  0  0  0  0  0  0  0  0  0
    0.9114   -8.3263   20.8967 C   0  0  0  0  0  0  0  0  0  0  0  0
    2.9612  -14.4642   23.2394 H   0  0  0  0  0  0  0  0  0  0  0  0
    3.2797  -12.7025   23.2599 H   0  0  0  0  0  0  0  0  0  0  0  0
    3.6440  -13.8289   24.6617 H   0  0  0  0  0  0  0  0  0  0  0  0
    1.8263  -12.1763   24.3348 H   0  0  0  0  0  0  0  0  0  0  0  0
    2.0469  -13.7162   26.6298 H   0  0  0  0  0  0  0  0  0  0  0  0
    0.3809  -13.3997   26.3493 H   0  0  0  0  0  0  0  0  0  0  0  0
    1.2143  -12.1329   26.3239 H   0  0  0  0  0  0  0  0  0  0  0  0
   -0.0268  -14.3601   22.5545 H   0  0  0  0  0  0  0  0  0  0  0  0
   -0.8221  -15.4809   24.5037 H   0  0  0  0  0  0  0  0  0  0  0  0
   -1.8478  -15.0467   23.7251 H   0  0  0  0  0  0  0  0  0  0  0  0
   -3.4653  -16.3065   24.3022 H   0  0  0  0  0  0  0  0  0  0  0  0
   -1.8918  -20.4931   23.6011 H   0  0  0  0  0  0  0  0  0  0  0  0
   -2.7308  -22.5172   22.6722 H   0  0  0  0  0  0  0  0  0  0  0  0
   -4.8740  -23.4504   23.4784 H   0  0  0  0  0  0  0  0  0  0  0  0
   -6.2430  -23.4741   25.6463 H   0  0  0  0  0  0  0  0  0  0  0  0
   -6.9977  -22.0354   27.5264 H   0  0  0  0  0  0  0  0  0  0  0  0
    1.3490  -11.6249   22.8492 H   0  0  0  0  0  0  0  0  0  0  0  0
    0.3355  -10.6289   21.1326 H   0  0  0  0  0  0  0  0  0  0  0  0
   -1.3259  -10.7548   21.4643 H   0  0  0  0  0  0  0  0  0  0  0  0
   -1.3164   -7.8225   23.2561 H   0  0  0  0  0  0  0  0  0  0  0  0
   -0.1594   -5.5886   22.7219 H   0  0  0  0  0  0  0  0  0  0  0  0
    1.4342   -8.8365   20.1142 H   0  0  0  0  0  0  0  0  0  0  0  0
  1  2  1  0
  2  3  1  0
  2  4  1  0
  4  5  1  0
  5  6  1  0
  6  7  1  0
  7  8  2  0
  7  9  1  0
  9 10  2  0
 10 11  1  0
 11 12  2  0
 12 13  1  0
 13 14  1  0
 14 15  1  0
 15 16  2  0
 16 17  1  0
  4 18  1  0
 18 19  1  0
 19 20  1  0
 20 21  1  0
 21 22  2  0
 22 23  1  0
 23 24  1  0
 17  9  1  0
 24 20  2  0
 17 13  2  0
  1 25  1  0
  1 26  1  0
  1 27  1  0
  2 28  1  0
  3 29  1  0
  3 30  1  0
  3 31  1  0
  4 32  1  0
  5 33  1  0
  5 34  1  0
  6 35  1  0
 10 36  1  0
 11 37  1  0
 12 38  1  0
 14 39  1  0
 15 40  1  0
 18 41  1  0
 19 42  1  0
 19 43  1  0
 21 44  1  0
 22 45  1  0
 24 46  1  0
M  END
>  <Energy>  (318) 
864.82813369704979

>  <compound_id>  (318) 
4922

>  <target_id>  (318) 
1

>  <reference_id>  (318) 
66

>  <inspiration_ids>  (318) 
[94, 66]

>  <energy_score>  (318) 
772.0829271206896

>  <distance_score>  (318) 
12.40930421264673

>  <path>  (318) 
/opt/xchem-fragalysis-2/maxwin/BulkDock/SCRATCH/511016/C4922-P66/C4922-P66.minimised.mol

>  <scratch_subdir>  (318) 
/opt/xchem-fragalysis-2/maxwin/BulkDock/SCRATCH/511016/C4922-P66

>  <fragmenstein_runtime>  (318) 
35.469181299209595

>  <fragmenstein_outcome>  (318) 
too moved

>  <fragmenstein_mode>  (318) 
expansion

>  <fragmenstein_error>  (318) 


$$$$
C4923-P94
     RDKit          3D

 44 46  0  0  0  0  0  0  0  0999 V2000
   -8.4374  -21.6725   21.6425 C   0  0  0  0  0  0  0  0  0  0  0  0
   -7.2336  -21.5165   20.8579 N   0  0  0  0  0  0  0  0  0  0  0  0
   -6.5190  -22.5664   20.3614 C   0  0  0  0  0  0  0  0  0  0  0  0
   -5.5049  -22.1575   19.6295 N   0  0  0  0  0  0  0  0  0  0  0  0
   -5.4942  -20.7753   19.7073 C   0  0  0  0  0  0  0  0  0  0  0  0
   -4.5354  -19.8143   19.1851 C   0  0  0  0  0  0  0  0  0  0  0  0
   -4.6778  -18.4329   19.4338 C   0  0  0  0  0  0  0  0  0  0  0  0
   -3.6716  -17.2089   18.9371 C   0  0  0  0  0  0  0  0  0  0  0  0
   -3.7144  -17.1051   17.7373 O   0  0  0  0  0  0  0  0  0  0  0  0
   -2.9198  -16.3058   20.0228 N   0  0  0  0  0  0  0  0  0  0  0  0
   -2.0096  -14.7975   19.8462 C   0  0  0  0  0  0  0  0  0  0  0  0
   -2.1146  -12.7111   19.7208 C   0  0  0  0  0  0  0  0  0  0  0  0
   -1.9458  -12.4706   18.1877 C   0  0  0  0  0  0  0  0  0  0  0  0
   -2.4091  -11.1848   17.7971 O   0  0  0  0  0  0  0  0  0  0  0  0
   -2.9636  -11.3442   20.0325 N   0  0  0  0  0  0  0  0  0  0  0  0
   -2.0341   -9.9649   20.2082 C   0  0  0  0  0  0  0  0  0  0  0  0
   -1.8619   -8.7698   19.0792 C   0  0  0  0  0  0  0  0  0  0  0  0
   -2.9117   -7.8615   18.6033 C   0  0  0  0  0  0  0  0  0  0  0  0
   -2.4722   -6.7052   17.9393 C   0  0  0  0  0  0  0  0  0  0  0  0
   -0.7564   -6.7441   17.6497 S   0  0  0  0  0  0  0  0  0  0  0  0
   -0.6539   -8.2121   18.5988 C   0  0  0  0  0  0  0  0  0  0  0  0
   -5.9104  -18.1118   20.0952 C   0  0  0  0  0  0  0  0  0  0  0  0
   -6.8744  -19.0146   20.6214 C   0  0  0  0  0  0  0  0  0  0  0  0
   -6.6137  -20.3604   20.4391 C   0  0  0  0  0  0  0  0  0  0  0  0
   -8.8605  -20.6913   21.8589 H   0  0  0  0  0  0  0  0  0  0  0  0
   -9.1544  -22.2463   21.0482 H   0  0  0  0  0  0  0  0  0  0  0  0
   -8.1797  -22.2269   22.5461 H   0  0  0  0  0  0  0  0  0  0  0  0
   -6.7824  -23.6004   20.5418 H   0  0  0  0  0  0  0  0  0  0  0  0
   -3.6780  -20.1860   18.6324 H   0  0  0  0  0  0  0  0  0  0  0  0
   -3.0228  -16.7173   20.9313 H   0  0  0  0  0  0  0  0  0  0  0  0
   -1.8806  -14.7594   20.9022 H   0  0  0  0  0  0  0  0  0  0  0  0
   -1.3842  -15.1498   19.0632 H   0  0  0  0  0  0  0  0  0  0  0  0
   -1.3475  -12.3596   20.3617 H   0  0  0  0  0  0  0  0  0  0  0  0
   -2.4395  -13.2068   17.5587 H   0  0  0  0  0  0  0  0  0  0  0  0
   -0.9185  -12.5937   17.9244 H   0  0  0  0  0  0  0  0  0  0  0  0
   -3.1194  -11.0088   18.4479 H   0  0  0  0  0  0  0  0  0  0  0  0
   -3.4389  -11.4334   20.9316 H   0  0  0  0  0  0  0  0  0  0  0  0
   -2.5933   -9.4359   20.9907 H   0  0  0  0  0  0  0  0  0  0  0  0
   -1.1194  -10.2127   20.7481 H   0  0  0  0  0  0  0  0  0  0  0  0
   -3.9525   -7.9520   18.8566 H   0  0  0  0  0  0  0  0  0  0  0  0
   -3.0694   -5.8796   17.5755 H   0  0  0  0  0  0  0  0  0  0  0  0
    0.3680   -8.4745   18.8134 H   0  0  0  0  0  0  0  0  0  0  0  0
   -6.1636  -17.0890   20.2961 H   0  0  0  0  0  0  0  0  0  0  0  0
   -7.7360  -18.6488   21.1660 H   0  0  0  0  0  0  0  0  0  0  0  0
  1  2  1  0
  2  3  1  0
  3  4  2  0
  4  5  1  0
  5  6  2  0
  6  7  1  0
  7  8  1  0
  8  9  2  0
  8 10  1  0
 10 11  1  0
 11 12  1  0
 12 13  1  0
 13 14  1  0
 12 15  1  0
 15 16  1  0
 16 17  1  0
 17 18  1  0
 18 19  2  0
 19 20  1  0
 20 21  1  0
  7 22  2  0
 22 23  1  0
 23 24  2  0
 24  2  1  0
 24  5  1  0
 21 17  2  0
  1 25  1  0
  1 26  1  0
  1 27  1  0
  3 28  1  0
  6 29  1  0
 10 30  1  0
 11 31  1  0
 11 32  1  0
 12 33  1  0
 13 34  1  0
 13 35  1  0
 14 36  1  0
 15 37  1  0
 16 38  1  0
 16 39  1  0
 18 40  1  0
 19 41  1  0
 21 42  1  0
 22 43  1  0
 23 44  1  0
M  END
>  <Energy>  (319) 
308.79221835485436

>  <compound_id>  (319) 
4923

>  <target_id>  (319) 
1

>  <reference_id>  (319) 
94

>  <inspiration_ids>  (319) 
[94, 66]

>  <energy_score>  (319) 
211.4098774168566

>  <distance_score>  (319) 
14.387267317592134

>  <path>  (319) 
/opt/xchem-fragalysis-2/maxwin/BulkDock/SCRATCH/511016/C4923-P94/C4923-P94.minimised.mol

>  <scratch_subdir>  (319) 
/opt/xchem-fragalysis-2/maxwin/BulkDock/SCRATCH/511016/C4923-P94

>  <fragmenstein_runtime>  (319) 
40.62641501426697

>  <fragmenstein_outcome>  (319) 
too moved

>  <fragmenstein_mode>  (319) 
expansion

>  <fragmenstein_error>  (319) 


$$$$
C4923-P66
     RDKit          3D

 44 46  0  0  0  0  0  0  0  0999 V2000
   -6.9775  -21.8332   27.4623 C   0  0  0  0  0  0  0  0  0  0  0  0
   -6.4381  -20.3560   27.3305 N   0  0  0  0  0  0  0  0  0  0  0  0
   -5.6267  -20.6678   26.3205 C   0  0  0  0  0  0  0  0  0  0  0  0
   -5.5402  -19.4839   26.0577 N   0  0  0  0  0  0  0  0  0  0  0  0
   -5.1608  -18.5124   27.4725 C   0  0  0  0  0  0  0  0  0  0  0  0
   -3.4133  -17.6343   27.4015 C   0  0  0  0  0  0  0  0  0  0  0  0
   -2.6292  -16.5404   27.0071 C   0  0  0  0  0  0  0  0  0  0  0  0
   -2.7088  -15.7218   25.0652 C   0  0  0  0  0  0  0  0  0  0  0  0
   -3.7779  -15.7927   24.6606 O   0  0  0  0  0  0  0  0  0  0  0  0
   -1.5127  -15.0874   23.7575 N   0  0  0  0  0  0  0  0  0  0  0  0
   -1.7308  -14.6609   21.7265 C   0  0  0  0  0  0  0  0  0  0  0  0
   -1.8317  -12.7716   20.7189 C   0  0  0  0  0  0  0  0  0  0  0  0
   -2.0318  -12.3983   18.9890 C   0  0  0  0  0  0  0  0  0  0  0  0
   -3.0759  -11.4433   18.7636 O   0  0  0  0  0  0  0  0  0  0  0  0
   -1.6821  -10.9753   21.0405 N   0  0  0  0  0  0  0  0  0  0  0  0
   -0.4360   -9.9181   21.3408 C   0  0  0  0  0  0  0  0  0  0  0  0
    0.2980   -8.5355   20.5213 C   0  0  0  0  0  0  0  0  0  0  0  0
    0.9884   -7.4397   21.3144 C   0  0  0  0  0  0  0  0  0  0  0  0
    1.5147   -6.3324   20.5559 C   0  0  0  0  0  0  0  0  0  0  0  0
    1.4190   -6.6162   18.7468 S   0  0  0  0  0  0  0  0  0  0  0  0
    0.4718   -8.1654   19.1365 C   0  0  0  0  0  0  0  0  0  0  0  0
   -3.7698  -16.7145   28.2928 C   0  0  0  0  0  0  0  0  0  0  0  0
   -5.1105  -17.8012   29.0398 C   0  0  0  0  0  0  0  0  0  0  0  0
   -5.9674  -19.0493   28.4789 C   0  0  0  0  0  0  0  0  0  0  0  0
   -7.0509  -22.3208   26.4865 H   0  0  0  0  0  0  0  0  0  0  0  0
   -6.1904  -22.4406   27.9213 H   0  0  0  0  0  0  0  0  0  0  0  0
   -7.9548  -21.9421   27.8605 H   0  0  0  0  0  0  0  0  0  0  0  0
   -5.4102  -21.5474   25.7292 H   0  0  0  0  0  0  0  0  0  0  0  0
   -2.6517  -18.4641   27.0796 H   0  0  0  0  0  0  0  0  0  0  0  0
   -0.6446  -14.9614   24.1870 H   0  0  0  0  0  0  0  0  0  0  0  0
   -1.9122  -15.3712   20.8470 H   0  0  0  0  0  0  0  0  0  0  0  0
   -0.6436  -14.7283   22.0921 H   0  0  0  0  0  0  0  0  0  0  0  0
   -2.8856  -12.6414   20.7400 H   0  0  0  0  0  0  0  0  0  0  0  0
   -2.1023  -13.2344   18.2848 H   0  0  0  0  0  0  0  0  0  0  0  0
   -1.1788  -11.8805   18.6134 H   0  0  0  0  0  0  0  0  0  0  0  0
   -3.7304  -11.5362   19.4789 H   0  0  0  0  0  0  0  0  0  0  0  0
   -2.0812  -10.5545   20.1886 H   0  0  0  0  0  0  0  0  0  0  0  0
   -0.8929   -9.3556   22.1600 H   0  0  0  0  0  0  0  0  0  0  0  0
    0.3695  -10.4959   21.7407 H   0  0  0  0  0  0  0  0  0  0  0  0
    1.0133   -7.4552   22.3974 H   0  0  0  0  0  0  0  0  0  0  0  0
    1.9786   -5.4192   20.9035 H   0  0  0  0  0  0  0  0  0  0  0  0
    0.0757   -8.6100   18.2433 H   0  0  0  0  0  0  0  0  0  0  0  0
   -3.6718  -16.0757   29.1920 H   0  0  0  0  0  0  0  0  0  0  0  0
   -5.4038  -17.4630   30.0475 H   0  0  0  0  0  0  0  0  0  0  0  0
  1  2  1  0
  2  3  1  0
  3  4  2  0
  4  5  1  0
  5  6  2  0
  6  7  1  0
  7  8  1  0
  8  9  2  0
  8 10  1  0
 10 11  1  0
 11 12  1  0
 12 13  1  0
 13 14  1  0
 12 15  1  0
 15 16  1  0
 16 17  1  0
 17 18  1  0
 18 19  2  0
 19 20  1  0
 20 21  1  0
  7 22  2  0
 22 23  1  0
 23 24  2  0
 24  2  1  0
 24  5  1  0
 21 17  2  0
  1 25  1  0
  1 26  1  0
  1 27  1  0
  3 28  1  0
  6 29  1  0
 10 30  1  0
 11 31  1  0
 11 32  1  0
 12 33  1  0
 13 34  1  0
 13 35  1  0
 14 36  1  0
 15 37  1  0
 16 38  1  0
 16 39  1  0
 18 40  1  0
 19 41  1  0
 21 42  1  0
 22 43  1  0
 23 44  1  0
M  END
>  <Energy>  (320) 
1378.8756300798436

>  <compound_id>  (320) 
4923

>  <target_id>  (320) 
1

>  <reference_id>  (320) 
66

>  <inspiration_ids>  (320) 
[94, 66]

>  <energy_score>  (320) 
1281.4932891418357

>  <distance_score>  (320) 
11.955513953109394

>  <path>  (320) 
/opt/xchem-fragalysis-2/maxwin/BulkDock/SCRATCH/511016/C4923-P66/C4923-P66.minimised.mol

>  <scratch_subdir>  (320) 
/opt/xchem-fragalysis-2/maxwin/BulkDock/SCRATCH/511016/C4923-P66

>  <fragmenstein_runtime>  (320) 
32.77115988731384

>  <fragmenstein_outcome>  (320) 
too moved

>  <fragmenstein_mode>  (320) 
expansion

>  <fragmenstein_error>  (320) 


$$$$
C4924-P94
     RDKit          3D

 44 46  0  0  0  0  0  0  0  0999 V2000
   -3.9013  -18.9100   19.8307 C   0  0  0  0  0  0  0  0  0  0  0  0
   -3.7396  -19.6750   21.0932 C   0  0  0  0  0  0  0  0  0  0  0  0
   -4.7536  -20.1767   21.7764 N   0  0  0  0  0  0  0  0  0  0  0  0
   -4.2156  -20.8500   22.8298 C   0  0  0  0  0  0  0  0  0  0  0  0
   -4.8700  -21.6241   23.8059 C   0  0  0  0  0  0  0  0  0  0  0  0
   -4.1297  -22.1922   24.8398 C   0  0  0  0  0  0  0  0  0  0  0  0
   -2.7503  -22.0045   24.8768 C   0  0  0  0  0  0  0  0  0  0  0  0
   -2.0710  -21.2739   23.8783 C   0  0  0  0  0  0  0  0  0  0  0  0
   -2.8280  -20.7005   22.8435 C   0  0  0  0  0  0  0  0  0  0  0  0
   -2.5179  -19.9717   21.6757 N   0  0  0  0  0  0  0  0  0  0  0  0
   -1.1539  -19.7257   21.1398 C   0  0  0  0  0  0  0  0  0  0  0  0
   -0.7267  -18.5696   20.0448 C   0  0  0  0  0  0  0  0  0  0  0  0
    0.8633  -18.4048   19.7461 C   0  0  0  0  0  0  0  0  0  0  0  0
    1.5602  -19.2818   20.1916 O   0  0  0  0  0  0  0  0  0  0  0  0
    1.2263  -17.1571   19.0045 N   0  0  0  0  0  0  0  0  0  0  0  0
    2.6222  -16.5402   18.6625 C   0  0  0  0  0  0  0  0  0  0  0  0
    3.5473  -17.6539   18.1649 C   0  0  0  0  0  0  0  0  0  0  0  0
    2.7316  -15.2785   17.6442 C   0  0  0  0  0  0  0  0  0  0  0  0
    3.9562  -14.3076   17.6848 C   0  0  0  0  0  0  0  0  0  0  0  0
    4.1263  -13.2172   16.7345 C   0  0  0  0  0  0  0  0  0  0  0  0
    5.2622  -12.4594   16.9387 C   0  0  0  0  0  0  0  0  0  0  0  0
    6.1592  -13.0266   18.2737 S   0  0  0  0  0  0  0  0  0  0  0  0
    5.0098  -14.2719   18.5858 C   0  0  0  0  0  0  0  0  0  0  0  0
   -3.4880  -17.9025   19.9261 H   0  0  0  0  0  0  0  0  0  0  0  0
   -3.4198  -19.4285   18.9970 H   0  0  0  0  0  0  0  0  0  0  0  0
   -4.9633  -18.8066   19.5842 H   0  0  0  0  0  0  0  0  0  0  0  0
   -5.9359  -21.7864   23.7209 H   0  0  0  0  0  0  0  0  0  0  0  0
   -4.6256  -22.7921   25.5972 H   0  0  0  0  0  0  0  0  0  0  0  0
   -2.1732  -22.4608   25.6796 H   0  0  0  0  0  0  0  0  0  0  0  0
   -0.9894  -21.1859   23.9052 H   0  0  0  0  0  0  0  0  0  0  0  0
   -0.8696  -20.6881   20.6933 H   0  0  0  0  0  0  0  0  0  0  0  0
   -0.5145  -19.5995   22.0180 H   0  0  0  0  0  0  0  0  0  0  0  0
   -1.1880  -18.8196   19.0842 H   0  0  0  0  0  0  0  0  0  0  0  0
   -1.1010  -17.5993   20.3655 H   0  0  0  0  0  0  0  0  0  0  0  0
    0.3907  -16.6049   18.8533 H   0  0  0  0  0  0  0  0  0  0  0  0
    2.9999  -16.1880   19.6241 H   0  0  0  0  0  0  0  0  0  0  0  0
    3.6665  -18.4367   18.9199 H   0  0  0  0  0  0  0  0  0  0  0  0
    3.1420  -18.1211   17.2610 H   0  0  0  0  0  0  0  0  0  0  0  0
    4.5461  -17.2710   17.9340 H   0  0  0  0  0  0  0  0  0  0  0  0
    2.6853  -15.6859   16.6242 H   0  0  0  0  0  0  0  0  0  0  0  0
    1.8369  -14.6590   17.7363 H   0  0  0  0  0  0  0  0  0  0  0  0
    3.4267  -13.0104   15.9326 H   0  0  0  0  0  0  0  0  0  0  0  0
    5.6049  -11.6096   16.3636 H   0  0  0  0  0  0  0  0  0  0  0  0
    5.1771  -14.9251   19.4312 H   0  0  0  0  0  0  0  0  0  0  0  0
  1  2  1  0
  2  3  2  0
  3  4  1  0
  4  5  2  0
  5  6  1  0
  6  7  2  0
  7  8  1  0
  8  9  2  0
  9 10  1  0
 10 11  1  0
 11 12  1  0
 12 13  1  0
 13 14  2  0
 13 15  1  0
 15 16  1  0
 16 17  1  0
 16 18  1  0
 18 19  1  0
 19 20  1  0
 20 21  2  0
 21 22  1  0
 22 23  1  0
 10  2  1  0
 23 19  2  0
  9  4  1  0
  1 24  1  0
  1 25  1  0
  1 26  1  0
  5 27  1  0
  6 28  1  0
  7 29  1  0
  8 30  1  0
 11 31  1  0
 11 32  1  0
 12 33  1  0
 12 34  1  0
 15 35  1  0
 16 36  1  0
 17 37  1  0
 17 38  1  0
 17 39  1  0
 18 40  1  0
 18 41  1  0
 20 42  1  0
 21 43  1  0
 23 44  1  0
M  END
>  <Energy>  (321) 
45.986333590725742

>  <compound_id>  (321) 
4924

>  <target_id>  (321) 
1

>  <reference_id>  (321) 
94

>  <inspiration_ids>  (321) 
[94, 66]

>  <energy_score>  (321) 
3.9682579238875633

>  <distance_score>  (321) 
14.136515563727905

>  <path>  (321) 
/opt/xchem-fragalysis-2/maxwin/BulkDock/SCRATCH/511016/C4924-P94/C4924-P94.minimised.mol

>  <scratch_subdir>  (321) 
/opt/xchem-fragalysis-2/maxwin/BulkDock/SCRATCH/511016/C4924-P94

>  <fragmenstein_runtime>  (321) 
25.913171529769897

>  <fragmenstein_outcome>  (321) 
too moved

>  <fragmenstein_mode>  (321) 
expansion

>  <fragmenstein_error>  (321) 


$$$$
C4924-P66
     RDKit          3D

 44 46  0  0  0  0  0  0  0  0999 V2000
   -3.3148  -14.7632   31.6917 C   0  0  0  0  0  0  0  0  0  0  0  0
   -3.2534  -16.0134   30.8889 C   0  0  0  0  0  0  0  0  0  0  0  0
   -4.0261  -17.0607   31.0859 N   0  0  0  0  0  0  0  0  0  0  0  0
   -3.6528  -17.9751   30.1481 C   0  0  0  0  0  0  0  0  0  0  0  0
   -4.1085  -19.2844   29.9738 C   0  0  0  0  0  0  0  0  0  0  0  0
   -3.6095  -20.0507   28.9167 C   0  0  0  0  0  0  0  0  0  0  0  0
   -2.6526  -19.5224   28.0608 C   0  0  0  0  0  0  0  0  0  0  0  0
   -2.1380  -18.2344   28.2604 C   0  0  0  0  0  0  0  0  0  0  0  0
   -2.6536  -17.4733   29.3172 C   0  0  0  0  0  0  0  0  0  0  0  0
   -2.3471  -16.2286   29.8496 N   0  0  0  0  0  0  0  0  0  0  0  0
   -1.0671  -15.4981   29.7189 C   0  0  0  0  0  0  0  0  0  0  0  0
   -0.4773  -14.8701   28.2029 C   0  0  0  0  0  0  0  0  0  0  0  0
    0.4265  -13.7135   26.6438 C   0  0  0  0  0  0  0  0  0  0  0  0
   -0.3740  -13.2275   26.0447 O   0  0  0  0  0  0  0  0  0  0  0  0
    1.8154  -13.5209   26.0955 N   0  0  0  0  0  0  0  0  0  0  0  0
    2.3750  -12.8061   24.6959 C   0  0  0  0  0  0  0  0  0  0  0  0
    1.3734  -11.6690   25.8686 C   0  0  0  0  0  0  0  0  0  0  0  0
    3.3607  -12.1181   23.1822 C   0  0  0  0  0  0  0  0  0  0  0  0
    4.8951  -10.9617   22.5384 C   0  0  0  0  0  0  0  0  0  0  0  0
    6.3400  -10.8328   23.4947 C   0  0  0  0  0  0  0  0  0  0  0  0
    7.5861  -11.1029   22.9306 C   0  0  0  0  0  0  0  0  0  0  0  0
    7.5380  -11.6053   21.3112 S   0  0  0  0  0  0  0  0  0  0  0  0
    5.7874  -11.5434   21.2698 C   0  0  0  0  0  0  0  0  0  0  0  0
   -2.4790  -14.7148   32.3959 H   0  0  0  0  0  0  0  0  0  0  0  0
   -4.2438  -14.7295   32.2699 H   0  0  0  0  0  0  0  0  0  0  0  0
   -3.2929  -13.8793   31.0479 H   0  0  0  0  0  0  0  0  0  0  0  0
   -4.8316  -19.6588   30.6860 H   0  0  0  0  0  0  0  0  0  0  0  0
   -3.9488  -21.0673   28.7676 H   0  0  0  0  0  0  0  0  0  0  0  0
   -2.2647  -20.1330   27.2493 H   0  0  0  0  0  0  0  0  0  0  0  0
   -1.3518  -17.8557   27.6216 H   0  0  0  0  0  0  0  0  0  0  0  0
   -0.3555  -16.2832   30.0350 H   0  0  0  0  0  0  0  0  0  0  0  0
   -1.0264  -14.7844   30.5427 H   0  0  0  0  0  0  0  0  0  0  0  0
    0.3987  -15.5667   28.5339 H   0  0  0  0  0  0  0  0  0  0  0  0
   -1.4268  -15.2086   27.7227 H   0  0  0  0  0  0  0  0  0  0  0  0
    2.4485  -13.9246   26.7673 H   0  0  0  0  0  0  0  0  0  0  0  0
    1.6808  -13.3312   24.1262 H   0  0  0  0  0  0  0  0  0  0  0  0
    1.8470  -10.8517   26.4739 H   0  0  0  0  0  0  0  0  0  0  0  0
    1.2589  -11.9199   26.9067 H   0  0  0  0  0  0  0  0  0  0  0  0
    0.3653  -11.5594   25.9115 H   0  0  0  0  0  0  0  0  0  0  0  0
    2.5625  -11.4664   22.9439 H   0  0  0  0  0  0  0  0  0  0  0  0
    3.3320  -12.8964   22.4496 H   0  0  0  0  0  0  0  0  0  0  0  0
    6.3492  -10.6391   24.5455 H   0  0  0  0  0  0  0  0  0  0  0  0
    8.5389  -11.0502   23.4398 H   0  0  0  0  0  0  0  0  0  0  0  0
    5.4222  -12.3360   20.6177 H   0  0  0  0  0  0  0  0  0  0  0  0
  1  2  1  0
  2  3  2  0
  3  4  1  0
  4  5  2  0
  5  6  1  0
  6  7  2  0
  7  8  1  0
  8  9  2  0
  9 10  1  0
 10 11  1  0
 11 12  1  0
 12 13  1  0
 13 14  2  0
 13 15  1  0
 15 16  1  0
 16 17  1  0
 16 18  1  0
 18 19  1  0
 19 20  1  0
 20 21  2  0
 21 22  1  0
 22 23  1  0
 10  2  1  0
 23 19  2  0
  9  4  1  0
  1 24  1  0
  1 25  1  0
  1 26  1  0
  5 27  1  0
  6 28  1  0
  7 29  1  0
  8 30  1  0
 11 31  1  0
 11 32  1  0
 12 33  1  0
 12 34  1  0
 15 35  1  0
 16 36  1  0
 17 37  1  0
 17 38  1  0
 17 39  1  0
 18 40  1  0
 18 41  1  0
 20 42  1  0
 21 43  1  0
 23 44  1  0
M  END
>  <Energy>  (322) 
718.77546096473623

>  <compound_id>  (322) 
4924

>  <target_id>  (322) 
1

>  <reference_id>  (322) 
66

>  <inspiration_ids>  (322) 
[94, 66]

>  <energy_score>  (322) 
676.7573852978857

>  <distance_score>  (322) 
12.594862819062921

>  <path>  (322) 
/opt/xchem-fragalysis-2/maxwin/BulkDock/SCRATCH/511016/C4924-P66/C4924-P66.minimised.mol

>  <scratch_subdir>  (322) 
/opt/xchem-fragalysis-2/maxwin/BulkDock/SCRATCH/511016/C4924-P66

>  <fragmenstein_runtime>  (322) 
36.71798086166382

>  <fragmenstein_outcome>  (322) 
too moved

>  <fragmenstein_mode>  (322) 
expansion

>  <fragmenstein_error>  (322) 


$$$$
C4928-P94
     RDKit          3D

 34 36  0  0  0  0  0  0  0  0999 V2000
    3.1437  -19.4367   18.1163 C   0  0  0  0  0  0  0  0  0  0  0  0
    2.1876  -18.2578   17.9195 C   0  0  0  0  0  0  0  0  0  0  0  0
    0.9935  -18.3151   18.9406 C   0  0  0  0  0  0  0  0  0  0  0  0
    0.3819  -17.3043   19.2793 O   0  0  0  0  0  0  0  0  0  0  0  0
    0.6167  -19.6019   19.3741 O   0  0  0  0  0  0  0  0  0  0  0  0
   -0.4850  -19.5544   20.3423 C   0  0  0  0  0  0  0  0  0  0  0  0
   -1.1670  -20.8950   20.7912 C   0  0  0  0  0  0  0  0  0  0  0  0
   -2.4119  -21.2626   20.4721 N   0  0  0  0  0  0  0  0  0  0  0  0
   -2.8406  -22.1765   21.4159 C   0  0  0  0  0  0  0  0  0  0  0  0
   -4.1127  -22.7593   21.6120 C   0  0  0  0  0  0  0  0  0  0  0  0
   -4.2924  -23.7087   22.6248 C   0  0  0  0  0  0  0  0  0  0  0  0
   -3.1983  -24.1190   23.3808 C   0  0  0  0  0  0  0  0  0  0  0  0
   -1.9300  -23.5406   23.1980 C   0  0  0  0  0  0  0  0  0  0  0  0
   -0.5662  -24.1876   24.0219 Cl  0  0  0  0  0  0  0  0  0  0  0  0
   -1.7935  -22.5120   22.2579 C   0  0  0  0  0  0  0  0  0  0  0  0
   -0.7727  -21.6387   21.9008 N   0  0  0  0  0  0  0  0  0  0  0  0
    2.9765  -16.8558   17.7980 C   0  0  0  0  0  0  0  0  0  0  0  0
    2.4031  -15.6055   17.3357 C   0  0  0  0  0  0  0  0  0  0  0  0
    3.3001  -14.5540   17.2695 C   0  0  0  0  0  0  0  0  0  0  0  0
    4.8704  -15.0300   17.7300 S   0  0  0  0  0  0  0  0  0  0  0  0
    4.3400  -16.6427   18.0119 C   0  0  0  0  0  0  0  0  0  0  0  0
    3.6278  -19.4008   19.0977 H   0  0  0  0  0  0  0  0  0  0  0  0
    3.9270  -19.4436   17.3506 H   0  0  0  0  0  0  0  0  0  0  0  0
    2.6146  -20.3930   18.0455 H   0  0  0  0  0  0  0  0  0  0  0  0
    1.7130  -18.3867   16.9355 H   0  0  0  0  0  0  0  0  0  0  0  0
   -1.2800  -18.9548   19.8824 H   0  0  0  0  0  0  0  0  0  0  0  0
   -0.1291  -19.0472   21.2412 H   0  0  0  0  0  0  0  0  0  0  0  0
   -4.9359  -22.4668   20.9682 H   0  0  0  0  0  0  0  0  0  0  0  0
   -5.2684  -24.1609   22.7813 H   0  0  0  0  0  0  0  0  0  0  0  0
   -3.3241  -24.9138   24.1085 H   0  0  0  0  0  0  0  0  0  0  0  0
    0.0718  -21.4612   22.4315 H   0  0  0  0  0  0  0  0  0  0  0  0
    1.3563  -15.4922   17.0762 H   0  0  0  0  0  0  0  0  0  0  0  0
    3.1005  -13.5342   16.9708 H   0  0  0  0  0  0  0  0  0  0  0  0
    5.0763  -17.3668   18.3326 H   0  0  0  0  0  0  0  0  0  0  0  0
  1  2  1  0
  2  3  1  0
  3  4  2  0
  3  5  1  0
  5  6  1  0
  6  7  1  0
  7  8  2  0
  8  9  1  0
  9 10  2  0
 10 11  1  0
 11 12  2  0
 12 13  1  0
 13 14  1  0
 13 15  2  0
 15 16  1  0
  2 17  1  0
 17 18  1  0
 18 19  2  0
 19 20  1  0
 20 21  1  0
 16  7  1  0
 21 17  2  0
 15  9  1  0
  1 22  1  0
  1 23  1  0
  1 24  1  0
  2 25  1  0
  6 26  1  0
  6 27  1  0
 10 28  1  0
 11 29  1  0
 12 30  1  0
 16 31  1  0
 18 32  1  0
 19 33  1  0
 21 34  1  0
M  END
>  <Energy>  (323) 
47.929759170194338

>  <compound_id>  (323) 
4928

>  <target_id>  (323) 
1

>  <reference_id>  (323) 
94

>  <inspiration_ids>  (323) 
[94, 66]

>  <energy_score>  (323) 
-22.522083737401886

>  <distance_score>  (323) 
15.388081857714685

>  <path>  (323) 
/opt/xchem-fragalysis-2/maxwin/BulkDock/SCRATCH/511016/C4928-P94/C4928-P94.minimised.mol

>  <scratch_subdir>  (323) 
/opt/xchem-fragalysis-2/maxwin/BulkDock/SCRATCH/511016/C4928-P94

>  <fragmenstein_runtime>  (323) 
19.070624589920044

>  <fragmenstein_outcome>  (323) 
too moved

>  <fragmenstein_mode>  (323) 
expansion

>  <fragmenstein_error>  (323) 


$$$$
C4928-P66
     RDKit          3D

 34 36  0  0  0  0  0  0  0  0999 V2000
   -1.5978   -8.8386   21.1180 C   0  0  0  0  0  0  0  0  0  0  0  0
   -0.4104   -9.7967   21.3985 C   0  0  0  0  0  0  0  0  0  0  0  0
   -1.0698  -11.2313   21.5283 C   0  0  0  0  0  0  0  0  0  0  0  0
   -2.0357  -11.5992   20.8573 O   0  0  0  0  0  0  0  0  0  0  0  0
   -0.2554  -12.3767   22.6231 O   0  0  0  0  0  0  0  0  0  0  0  0
   -0.3817  -14.1018   23.3795 C   0  0  0  0  0  0  0  0  0  0  0  0
   -1.5832  -15.0624   24.4203 C   0  0  0  0  0  0  0  0  0  0  0  0
   -2.1026  -16.2546   24.6525 N   0  0  0  0  0  0  0  0  0  0  0  0
   -2.9366  -17.5056   25.2134 C   0  0  0  0  0  0  0  0  0  0  0  0
   -4.1134  -19.1830   24.5902 C   0  0  0  0  0  0  0  0  0  0  0  0
   -5.6763  -18.7887   23.6225 C   0  0  0  0  0  0  0  0  0  0  0  0
   -6.1737  -17.1105   23.1162 C   0  0  0  0  0  0  0  0  0  0  0  0
   -5.3277  -15.4891   23.6095 C   0  0  0  0  0  0  0  0  0  0  0  0
   -6.4141  -14.2067   22.9753 Cl  0  0  0  0  0  0  0  0  0  0  0  0
   -3.6963  -15.8016   24.6427 C   0  0  0  0  0  0  0  0  0  0  0  0
   -2.4740  -14.8265   25.3666 N   0  0  0  0  0  0  0  0  0  0  0  0
    0.7743   -9.4991   20.3686 C   0  0  0  0  0  0  0  0  0  0  0  0
    0.6829   -8.6601   19.1805 C   0  0  0  0  0  0  0  0  0  0  0  0
    1.8900   -8.4112   18.5539 C   0  0  0  0  0  0  0  0  0  0  0  0
    3.1843   -9.1736   19.3517 S   0  0  0  0  0  0  0  0  0  0  0  0
    2.1153   -9.8504   20.5128 C   0  0  0  0  0  0  0  0  0  0  0  0
   -1.2758   -7.7916   21.1451 H   0  0  0  0  0  0  0  0  0  0  0  0
   -2.3843   -8.9603   21.8717 H   0  0  0  0  0  0  0  0  0  0  0  0
   -2.0515   -9.0332   20.1397 H   0  0  0  0  0  0  0  0  0  0  0  0
   -0.1064   -9.4606   22.3704 H   0  0  0  0  0  0  0  0  0  0  0  0
   -0.3734  -14.6199   22.4268 H   0  0  0  0  0  0  0  0  0  0  0  0
    0.5597  -14.1552   23.9357 H   0  0  0  0  0  0  0  0  0  0  0  0
   -4.2494  -20.0998   25.1655 H   0  0  0  0  0  0  0  0  0  0  0  0
   -6.3396  -19.6215   23.3909 H   0  0  0  0  0  0  0  0  0  0  0  0
   -7.1101  -17.0166   22.5587 H   0  0  0  0  0  0  0  0  0  0  0  0
   -2.6084  -13.9145   25.7740 H   0  0  0  0  0  0  0  0  0  0  0  0
   -0.2406   -8.2285   18.8126 H   0  0  0  0  0  0  0  0  0  0  0  0
    2.0628   -7.8138   17.6693 H   0  0  0  0  0  0  0  0  0  0  0  0
    2.5558  -10.4752   21.2764 H   0  0  0  0  0  0  0  0  0  0  0  0
  1  2  1  0
  2  3  1  0
  3  4  2  0
  3  5  1  0
  5  6  1  0
  6  7  1  0
  7  8  2  0
  8  9  1  0
  9 10  2  0
 10 11  1  0
 11 12  2  0
 12 13  1  0
 13 14  1  0
 13 15  2  0
 15 16  1  0
  2 17  1  0
 17 18  1  0
 18 19  2  0
 19 20  1  0
 20 21  1  0
 16  7  1  0
 21 17  2  0
 15  9  1  0
  1 22  1  0
  1 23  1  0
  1 24  1  0
  2 25  1  0
  6 26  1  0
  6 27  1  0
 10 28  1  0
 11 29  1  0
 12 30  1  0
 16 31  1  0
 18 32  1  0
 19 33  1  0
 21 34  1  0
M  END
>  <Energy>  (324) 
1080.3427288184489

>  <compound_id>  (324) 
4928

>  <target_id>  (324) 
1

>  <reference_id>  (324) 
66

>  <inspiration_ids>  (324) 
[94, 66]

>  <energy_score>  (324) 
1009.8908859108386

>  <distance_score>  (324) 
13.756526027327054

>  <path>  (324) 
/opt/xchem-fragalysis-2/maxwin/BulkDock/SCRATCH/511016/C4928-P66/C4928-P66.minimised.mol

>  <scratch_subdir>  (324) 
/opt/xchem-fragalysis-2/maxwin/BulkDock/SCRATCH/511016/C4928-P66

>  <fragmenstein_runtime>  (324) 
21.691776514053345

>  <fragmenstein_outcome>  (324) 
too moved

>  <fragmenstein_mode>  (324) 
expansion

>  <fragmenstein_error>  (324) 


$$$$
C4929-P94
     RDKit          3D

 38 41  0  0  0  0  0  0  0  0999 V2000
   -3.6055  -21.3365   28.5201 C   0  0  0  0  0  0  0  0  0  0  0  0
   -4.0638  -20.1007   28.5469 N   0  0  0  0  0  0  0  0  0  0  0  0
   -3.3551  -19.4487   27.4833 C   0  0  0  0  0  0  0  0  0  0  0  0
   -2.8569  -17.6854   27.1697 C   0  0  0  0  0  0  0  0  0  0  0  0
   -2.4295  -17.2070   25.8011 C   0  0  0  0  0  0  0  0  0  0  0  0
   -2.2604  -15.6197   24.5997 C   0  0  0  0  0  0  0  0  0  0  0  0
   -1.3399  -14.8952   23.0202 N   0  0  0  0  0  0  0  0  0  0  0  0
   -1.9072  -14.4521   21.1819 C   0  0  0  0  0  0  0  0  0  0  0  0
   -1.7382  -12.4716   20.7580 C   0  0  0  0  0  0  0  0  0  0  0  0
   -0.8083  -11.2476   21.7881 O   0  0  0  0  0  0  0  0  0  0  0  0
    0.7448  -11.8534   22.7644 C   0  0  0  0  0  0  0  0  0  0  0  0
    2.8391  -12.1603   22.6184 C   0  0  0  0  0  0  0  0  0  0  0  0
    3.6257  -13.0152   21.2623 C   0  0  0  0  0  0  0  0  0  0  0  0
    4.7861  -12.7748   20.4347 C   0  0  0  0  0  0  0  0  0  0  0  0
    5.7953  -11.5117   20.9149 S   0  0  0  0  0  0  0  0  0  0  0  0
    4.1689  -11.2883   22.3341 C   0  0  0  0  0  0  0  0  0  0  0  0
   -0.1015  -13.7949   23.1180 C   0  0  0  0  0  0  0  0  0  0  0  0
   -1.9665  -18.4684   25.7016 C   0  0  0  0  0  0  0  0  0  0  0  0
   -2.7144  -20.0123   25.5435 C   0  0  0  0  0  0  0  0  0  0  0  0
   -3.0640  -20.5122   26.6883 C   0  0  0  0  0  0  0  0  0  0  0  0
   -3.3821  -21.6907   27.2388 N   0  0  0  0  0  0  0  0  0  0  0  0
   -3.3993  -21.9719   29.3671 H   0  0  0  0  0  0  0  0  0  0  0  0
   -3.3792  -17.0248   27.8575 H   0  0  0  0  0  0  0  0  0  0  0  0
   -2.0968  -14.8075   25.3177 H   0  0  0  0  0  0  0  0  0  0  0  0
   -3.2576  -15.5653   24.1833 H   0  0  0  0  0  0  0  0  0  0  0  0
   -1.5915  -15.2568   20.4290 H   0  0  0  0  0  0  0  0  0  0  0  0
   -2.7332  -14.9417   20.6684 H   0  0  0  0  0  0  0  0  0  0  0  0
   -1.4634  -12.1696   19.7434 H   0  0  0  0  0  0  0  0  0  0  0  0
   -2.7169  -11.9832   20.7818 H   0  0  0  0  0  0  0  0  0  0  0  0
    0.9108  -11.1412   21.9636 H   0  0  0  0  0  0  0  0  0  0  0  0
    3.0065  -13.7985   20.8995 H   0  0  0  0  0  0  0  0  0  0  0  0
    5.0738  -13.2876   19.5268 H   0  0  0  0  0  0  0  0  0  0  0  0
    4.8230  -10.5861   22.8724 H   0  0  0  0  0  0  0  0  0  0  0  0
    0.2229  -14.4276   22.3131 H   0  0  0  0  0  0  0  0  0  0  0  0
    0.5198  -14.1710   23.9594 H   0  0  0  0  0  0  0  0  0  0  0  0
   -1.1678  -18.5545   26.5213 H   0  0  0  0  0  0  0  0  0  0  0  0
   -2.6790  -20.6175   24.6363 H   0  0  0  0  0  0  0  0  0  0  0  0
   -3.1616  -22.6057   26.8731 H   0  0  0  0  0  0  0  0  0  0  0  0
  1  2  2  0
  2  3  1  0
  3  4  2  0
  4  5  1  0
  5  6  1  0
  6  7  1  0
  7  8  1  0
  8  9  1  0
  9 10  1  0
 10 11  1  0
 11 12  1  0
 12 13  1  0
 13 14  2  0
 14 15  1  0
 15 16  1  0
 11 17  1  0
  5 18  2  0
 18 19  1  0
 19 20  2  0
 20 21  1  0
 21  1  1  0
 20  3  1  0
 17  7  1  0
 16 12  2  0
  1 22  1  0
  4 23  1  0
  6 24  1  0
  6 25  1  0
  8 26  1  0
  8 27  1  0
  9 28  1  0
  9 29  1  0
 11 30  1  0
 13 31  1  0
 14 32  1  0
 16 33  1  0
 17 34  1  0
 17 35  1  0
 18 36  1  0
 19 37  1  0
 21 38  1  0
M  END
>  <Energy>  (325) 
1277.3924318212476

>  <compound_id>  (325) 
4929

>  <target_id>  (325) 
1

>  <reference_id>  (325) 
94

>  <inspiration_ids>  (325) 
[94, 66]

>  <energy_score>  (325) 
1128.4521552903773

>  <distance_score>  (325) 
12.697039378958717

>  <path>  (325) 
/opt/xchem-fragalysis-2/maxwin/BulkDock/SCRATCH/511016/C4929-P94/C4929-P94.minimised.mol

>  <scratch_subdir>  (325) 
/opt/xchem-fragalysis-2/maxwin/BulkDock/SCRATCH/511016/C4929-P94

>  <fragmenstein_runtime>  (325) 
16.98780846595764

>  <fragmenstein_outcome>  (325) 
too moved

>  <fragmenstein_mode>  (325) 
expansion

>  <fragmenstein_error>  (325) 


$$$$
C4929-P66
     RDKit          3D

 38 41  0  0  0  0  0  0  0  0999 V2000
   -1.1992  -21.6818   30.7864 C   0  0  0  0  0  0  0  0  0  0  0  0
   -0.4008  -20.7156   31.1888 N   0  0  0  0  0  0  0  0  0  0  0  0
    0.3744  -20.3863   30.0921 C   0  0  0  0  0  0  0  0  0  0  0  0
    1.3720  -19.3835   29.9098 C   0  0  0  0  0  0  0  0  0  0  0  0
    2.0452  -19.1780   28.6601 C   0  0  0  0  0  0  0  0  0  0  0  0
    3.1745  -18.0655   28.5817 C   0  0  0  0  0  0  0  0  0  0  0  0
    3.9123  -17.7108   27.3082 N   0  0  0  0  0  0  0  0  0  0  0  0
    4.7182  -18.8270   26.7685 C   0  0  0  0  0  0  0  0  0  0  0  0
    6.2254  -18.5307   26.6037 C   0  0  0  0  0  0  0  0  0  0  0  0
    6.5081  -17.3956   25.7795 O   0  0  0  0  0  0  0  0  0  0  0  0
    5.7352  -16.2130   26.0986 C   0  0  0  0  0  0  0  0  0  0  0  0
    6.6542  -14.9467   25.9781 C   0  0  0  0  0  0  0  0  0  0  0  0
    7.7059  -14.8205   24.9713 C   0  0  0  0  0  0  0  0  0  0  0  0
    8.3261  -13.5873   24.9417 C   0  0  0  0  0  0  0  0  0  0  0  0
    7.6906  -12.5458   26.1323 S   0  0  0  0  0  0  0  0  0  0  0  0
    6.5905  -13.7557   26.6855 C   0  0  0  0  0  0  0  0  0  0  0  0
    4.8247  -16.4713   27.4078 C   0  0  0  0  0  0  0  0  0  0  0  0
    1.6649  -20.0393   27.6202 C   0  0  0  0  0  0  0  0  0  0  0  0
    0.6979  -21.0767   27.7832 C   0  0  0  0  0  0  0  0  0  0  0  0
    0.0515  -21.2015   29.0162 C   0  0  0  0  0  0  0  0  0  0  0  0
   -0.9597  -22.0124   29.4810 N   0  0  0  0  0  0  0  0  0  0  0  0
   -1.9583  -22.1679   31.3845 H   0  0  0  0  0  0  0  0  0  0  0  0
    1.6117  -18.7563   30.7648 H   0  0  0  0  0  0  0  0  0  0  0  0
    2.6755  -17.1443   28.9095 H   0  0  0  0  0  0  0  0  0  0  0  0
    3.9204  -18.3271   29.3436 H   0  0  0  0  0  0  0  0  0  0  0  0
    4.6143  -19.7336   27.3752 H   0  0  0  0  0  0  0  0  0  0  0  0
    4.3104  -19.0523   25.7759 H   0  0  0  0  0  0  0  0  0  0  0  0
    6.7095  -18.3914   27.5777 H   0  0  0  0  0  0  0  0  0  0  0  0
    6.7099  -19.3935   26.1341 H   0  0  0  0  0  0  0  0  0  0  0  0
    5.0412  -16.1044   25.2584 H   0  0  0  0  0  0  0  0  0  0  0  0
    7.9600  -15.6202   24.2838 H   0  0  0  0  0  0  0  0  0  0  0  0
    9.1154  -13.2589   24.2796 H   0  0  0  0  0  0  0  0  0  0  0  0
    5.9224  -13.5106   27.4985 H   0  0  0  0  0  0  0  0  0  0  0  0
    5.4850  -16.5916   28.2765 H   0  0  0  0  0  0  0  0  0  0  0  0
    4.2096  -15.5875   27.6004 H   0  0  0  0  0  0  0  0  0  0  0  0
    2.1362  -19.9399   26.6424 H   0  0  0  0  0  0  0  0  0  0  0  0
    0.4700  -21.7417   26.9535 H   0  0  0  0  0  0  0  0  0  0  0  0
   -1.4478  -22.7150   28.9457 H   0  0  0  0  0  0  0  0  0  0  0  0
  1  2  2  0
  2  3  1  0
  3  4  2  0
  4  5  1  0
  5  6  1  0
  6  7  1  0
  7  8  1  0
  8  9  1  0
  9 10  1  0
 10 11  1  0
 11 12  1  0
 12 13  1  0
 13 14  2  0
 14 15  1  0
 15 16  1  0
 11 17  1  0
  5 18  2  0
 18 19  1  0
 19 20  2  0
 20 21  1  0
 21  1  1  0
 20  3  1  0
 17  7  1  0
 16 12  2  0
  1 22  1  0
  4 23  1  0
  6 24  1  0
  6 25  1  0
  8 26  1  0
  8 27  1  0
  9 28  1  0
  9 29  1  0
 11 30  1  0
 13 31  1  0
 14 32  1  0
 16 33  1  0
 17 34  1  0
 17 35  1  0
 18 36  1  0
 19 37  1  0
 21 38  1  0
M  END
>  <Energy>  (326) 
114.80520226139592

>  <compound_id>  (326) 
4929

>  <target_id>  (326) 
1

>  <reference_id>  (326) 
66

>  <inspiration_ids>  (326) 
[94, 66]

>  <energy_score>  (326) 
-34.13507426947422

>  <distance_score>  (326) 
14.704502519530982

>  <path>  (326) 
/opt/xchem-fragalysis-2/maxwin/BulkDock/SCRATCH/511016/C4929-P66/C4929-P66.minimised.mol

>  <scratch_subdir>  (326) 
/opt/xchem-fragalysis-2/maxwin/BulkDock/SCRATCH/511016/C4929-P66

>  <fragmenstein_runtime>  (326) 
26.73656415939331

>  <fragmenstein_outcome>  (326) 
too moved

>  <fragmenstein_mode>  (326) 
expansion

>  <fragmenstein_error>  (326) 


$$$$
C4930-P94
     RDKit          3D

 45 48  0  0  0  0  0  0  0  0999 V2000
    0.4870  -14.4509   24.3778 O   0  0  0  0  0  0  0  0  0  0  0  0
    0.9634  -13.7972   25.1874 C   0  0  0  0  0  0  0  0  0  0  0  0
    0.4968  -13.6852   26.6618 N   0  0  0  0  0  0  0  0  0  0  0  0
   -0.9590  -14.7103   27.6933 C   0  0  0  0  0  0  0  0  0  0  0  0
   -2.2743  -14.8224   29.1286 C   0  0  0  0  0  0  0  0  0  0  0  0
   -3.4368  -15.9039   30.1593 C   0  0  0  0  0  0  0  0  0  0  0  0
   -5.0986  -16.0641   30.3109 N   0  0  0  0  0  0  0  0  0  0  0  0
   -5.3765  -16.6562   32.0752 C   0  0  0  0  0  0  0  0  0  0  0  0
   -6.3776  -17.3269   32.7993 C   0  0  0  0  0  0  0  0  0  0  0  0
   -6.2453  -17.8214   34.0982 C   0  0  0  0  0  0  0  0  0  0  0  0
   -5.0409  -17.7074   34.7547 C   0  0  0  0  0  0  0  0  0  0  0  0
   -3.9195  -17.1860   34.1072 C   0  0  0  0  0  0  0  0  0  0  0  0
   -4.0318  -16.7502   32.7719 C   0  0  0  0  0  0  0  0  0  0  0  0
   -2.8998  -16.3842   31.7347 N   0  0  0  0  0  0  0  0  0  0  0  0
    2.3757  -12.9799   24.7567 N   0  0  0  0  0  0  0  0  0  0  0  0
    3.0669  -12.8570   23.5014 C   0  0  0  0  0  0  0  0  0  0  0  0
    4.0683  -11.9181   22.7145 C   0  0  0  0  0  0  0  0  0  0  0  0
    5.5629  -11.5382   23.8007 O   0  0  0  0  0  0  0  0  0  0  0  0
    5.6528  -12.5345   25.2700 C   0  0  0  0  0  0  0  0  0  0  0  0
    7.3087  -12.4492   25.2929 C   0  0  0  0  0  0  0  0  0  0  0  0
    8.3364  -13.2453   25.8949 C   0  0  0  0  0  0  0  0  0  0  0  0
    9.6220  -12.8146   25.6095 C   0  0  0  0  0  0  0  0  0  0  0  0
    9.6516  -11.3690   24.7175 S   0  0  0  0  0  0  0  0  0  0  0  0
    7.9504  -11.3231   24.7353 C   0  0  0  0  0  0  0  0  0  0  0  0
    4.0779  -13.8612   25.0775 C   0  0  0  0  0  0  0  0  0  0  0  0
    1.0037  -13.0243   27.0816 H   0  0  0  0  0  0  0  0  0  0  0  0
   -0.4525  -15.4100   28.3912 H   0  0  0  0  0  0  0  0  0  0  0  0
   -1.7249  -14.9350   26.9320 H   0  0  0  0  0  0  0  0  0  0  0  0
   -2.7723  -15.4045   28.3364 H   0  0  0  0  0  0  0  0  0  0  0  0
   -2.6693  -13.8405   29.4078 H   0  0  0  0  0  0  0  0  0  0  0  0
   -7.2076  -17.6896   32.2663 H   0  0  0  0  0  0  0  0  0  0  0  0
   -7.0737  -18.3552   34.5549 H   0  0  0  0  0  0  0  0  0  0  0  0
   -4.9435  -18.0947   35.7665 H   0  0  0  0  0  0  0  0  0  0  0  0
   -2.9751  -17.1944   34.6367 H   0  0  0  0  0  0  0  0  0  0  0  0
   -2.0446  -15.9476   32.0160 H   0  0  0  0  0  0  0  0  0  0  0  0
    2.2897  -12.1763   23.1842 H   0  0  0  0  0  0  0  0  0  0  0  0
    3.0188  -13.8554   23.0786 H   0  0  0  0  0  0  0  0  0  0  0  0
    4.3620  -12.2228   21.6641 H   0  0  0  0  0  0  0  0  0  0  0  0
    3.7397  -10.9060   22.5937 H   0  0  0  0  0  0  0  0  0  0  0  0
    5.6204  -11.9536   26.2059 H   0  0  0  0  0  0  0  0  0  0  0  0
    8.1816  -14.1521   26.4631 H   0  0  0  0  0  0  0  0  0  0  0  0
   10.5483  -13.2881   25.9053 H   0  0  0  0  0  0  0  0  0  0  0  0
    7.4831  -10.4586   24.2862 H   0  0  0  0  0  0  0  0  0  0  0  0
    4.0083  -14.3287   26.0741 H   0  0  0  0  0  0  0  0  0  0  0  0
    4.2334  -14.7230   24.4055 H   0  0  0  0  0  0  0  0  0  0  0  0
  1  2  2  0
  2  3  1  0
  3  4  1  0
  4  5  1  0
  5  6  1  0
  6  7  2  0
  7  8  1  0
  8  9  2  0
  9 10  1  0
 10 11  2  0
 11 12  1  0
 12 13  2  0
 13 14  1  0
  2 15  1  0
 15 16  1  0
 16 17  1  0
 17 18  1  0
 18 19  1  0
 19 20  1  0
 20 21  1  0
 21 22  2  0
 22 23  1  0
 23 24  1  0
 19 25  1  0
 14  6  1  0
 25 15  1  0
 13  8  1  0
 24 20  2  0
  3 26  1  0
  4 27  1  0
  4 28  1  0
  5 29  1  0
  5 30  1  0
  9 31  1  0
 10 32  1  0
 11 33  1  0
 12 34  1  0
 14 35  1  0
 16 36  1  0
 16 37  1  0
 17 38  1  0
 17 39  1  0
 19 40  1  0
 21 41  1  0
 22 42  1  0
 24 43  1  0
 25 44  1  0
 25 45  1  0
M  END
>  <Energy>  (327) 
855.41997033348071

>  <compound_id>  (327) 
4930

>  <target_id>  (327) 
1

>  <reference_id>  (327) 
94

>  <inspiration_ids>  (327) 
[94, 66]

>  <energy_score>  (327) 
808.0113866310055

>  <distance_score>  (327) 
12.723209848888374

>  <path>  (327) 
/opt/xchem-fragalysis-2/maxwin/BulkDock/SCRATCH/511016/C4930-P94/C4930-P94.minimised.mol

>  <scratch_subdir>  (327) 
/opt/xchem-fragalysis-2/maxwin/BulkDock/SCRATCH/511016/C4930-P94

>  <fragmenstein_runtime>  (327) 
36.851513385772705

>  <fragmenstein_outcome>  (327) 
too moved

>  <fragmenstein_mode>  (327) 
expansion

>  <fragmenstein_error>  (327) 


$$$$
C4930-P66
     RDKit          3D

 45 48  0  0  0  0  0  0  0  0999 V2000
   -1.1195  -13.3504   25.4159 O   0  0  0  0  0  0  0  0  0  0  0  0
   -1.0267  -13.8989   24.4175 C   0  0  0  0  0  0  0  0  0  0  0  0
   -1.6457  -15.3425   24.2434 N   0  0  0  0  0  0  0  0  0  0  0  0
   -2.7468  -16.4568   25.4268 C   0  0  0  0  0  0  0  0  0  0  0  0
   -3.4746  -17.3536   27.1619 C   0  0  0  0  0  0  0  0  0  0  0  0
   -5.0697  -18.8072   27.2759 C   0  0  0  0  0  0  0  0  0  0  0  0
   -4.6208  -20.1257   26.2572 N   0  0  0  0  0  0  0  0  0  0  0  0
   -5.3102  -21.1420   25.6548 C   0  0  0  0  0  0  0  0  0  0  0  0
   -5.3608  -22.5189   25.3980 C   0  0  0  0  0  0  0  0  0  0  0  0
   -5.9030  -22.9533   24.1860 C   0  0  0  0  0  0  0  0  0  0  0  0
   -6.3840  -22.0236   23.2781 C   0  0  0  0  0  0  0  0  0  0  0  0
   -6.4094  -20.6490   23.6263 C   0  0  0  0  0  0  0  0  0  0  0  0
   -5.8099  -20.1737   24.8913 C   0  0  0  0  0  0  0  0  0  0  0  0
   -6.1260  -19.7727   26.3619 N   0  0  0  0  0  0  0  0  0  0  0  0
   -0.2750  -13.0402   22.7874 N   0  0  0  0  0  0  0  0  0  0  0  0
    0.4807  -11.3897   22.6184 C   0  0  0  0  0  0  0  0  0  0  0  0
   -0.2752   -9.8033   22.2538 C   0  0  0  0  0  0  0  0  0  0  0  0
   -1.6719   -9.6815   22.2750 O   0  0  0  0  0  0  0  0  0  0  0  0
   -2.1512  -10.4311   21.2185 C   0  0  0  0  0  0  0  0  0  0  0  0
   -2.0401   -9.5174   19.9278 C   0  0  0  0  0  0  0  0  0  0  0  0
   -2.3471   -9.8647   18.5617 C   0  0  0  0  0  0  0  0  0  0  0  0
   -1.9735   -8.8901   17.6497 C   0  0  0  0  0  0  0  0  0  0  0  0
   -1.3154   -7.5080   18.4076 S   0  0  0  0  0  0  0  0  0  0  0  0
   -1.6262   -8.1747   19.9537 C   0  0  0  0  0  0  0  0  0  0  0  0
   -1.4594  -12.0238   21.4048 C   0  0  0  0  0  0  0  0  0  0  0  0
   -1.5358  -15.5996   23.3024 H   0  0  0  0  0  0  0  0  0  0  0  0
   -2.1446  -17.3668   25.3906 H   0  0  0  0  0  0  0  0  0  0  0  0
   -2.4128  -15.5689   26.0297 H   0  0  0  0  0  0  0  0  0  0  0  0
   -2.5630  -17.9368   27.2229 H   0  0  0  0  0  0  0  0  0  0  0  0
   -3.5038  -16.6071   27.9510 H   0  0  0  0  0  0  0  0  0  0  0  0
   -4.9483  -23.2386   26.0845 H   0  0  0  0  0  0  0  0  0  0  0  0
   -5.9077  -24.0104   23.9416 H   0  0  0  0  0  0  0  0  0  0  0  0
   -6.7753  -22.3382   22.3152 H   0  0  0  0  0  0  0  0  0  0  0  0
   -6.8007  -19.9243   22.9113 H   0  0  0  0  0  0  0  0  0  0  0  0
   -6.7813  -20.2221   26.9680 H   0  0  0  0  0  0  0  0  0  0  0  0
    1.1636  -11.2498   21.8615 H   0  0  0  0  0  0  0  0  0  0  0  0
    1.2812  -11.6182   23.3546 H   0  0  0  0  0  0  0  0  0  0  0  0
    0.1826   -9.3730   21.3653 H   0  0  0  0  0  0  0  0  0  0  0  0
    0.0380   -8.9396   22.8578 H   0  0  0  0  0  0  0  0  0  0  0  0
   -3.2329  -10.5294   21.3252 H   0  0  0  0  0  0  0  0  0  0  0  0
   -2.7410  -10.8262   18.2553 H   0  0  0  0  0  0  0  0  0  0  0  0
   -2.0460   -8.9377   16.5718 H   0  0  0  0  0  0  0  0  0  0  0  0
   -1.4055   -7.5775   20.8303 H   0  0  0  0  0  0  0  0  0  0  0  0
   -1.0548  -11.9592   20.3724 H   0  0  0  0  0  0  0  0  0  0  0  0
   -2.1626  -12.7394   20.9123 H   0  0  0  0  0  0  0  0  0  0  0  0
  1  2  2  0
  2  3  1  0
  3  4  1  0
  4  5  1  0
  5  6  1  0
  6  7  2  0
  7  8  1  0
  8  9  2  0
  9 10  1  0
 10 11  2  0
 11 12  1  0
 12 13  2  0
 13 14  1  0
  2 15  1  0
 15 16  1  0
 16 17  1  0
 17 18  1  0
 18 19  1  0
 19 20  1  0
 20 21  1  0
 21 22  2  0
 22 23  1  0
 23 24  1  0
 19 25  1  0
 14  6  1  0
 25 15  1  0
 13  8  1  0
 24 20  2  0
  3 26  1  0
  4 27  1  0
  4 28  1  0
  5 29  1  0
  5 30  1  0
  9 31  1  0
 10 32  1  0
 11 33  1  0
 12 34  1  0
 14 35  1  0
 16 36  1  0
 16 37  1  0
 17 38  1  0
 17 39  1  0
 19 40  1  0
 21 41  1  0
 22 42  1  0
 24 43  1  0
 25 44  1  0
 25 45  1  0
M  END
>  <Energy>  (328) 
1126.1808888191279

>  <compound_id>  (328) 
4930

>  <target_id>  (328) 
1

>  <reference_id>  (328) 
66

>  <inspiration_ids>  (328) 
[94, 66]

>  <energy_score>  (328) 
1078.77230511662

>  <distance_score>  (328) 
12.891651894107477

>  <path>  (328) 
/opt/xchem-fragalysis-2/maxwin/BulkDock/SCRATCH/511016/C4930-P66/C4930-P66.minimised.mol

>  <scratch_subdir>  (328) 
/opt/xchem-fragalysis-2/maxwin/BulkDock/SCRATCH/511016/C4930-P66

>  <fragmenstein_runtime>  (328) 
39.709415435791016

>  <fragmenstein_outcome>  (328) 
too moved

>  <fragmenstein_mode>  (328) 
expansion

>  <fragmenstein_error>  (328) 


$$$$
C37715-P53
     RDKit          3D

 42 44  0  0  0  0  0  0  0  0999 V2000
   -4.9307  -12.0647   29.2220 C   0  0  0  0  0  0  0  0  0  0  0  0
   -6.1719  -11.9939   28.2887 C   0  0  0  0  0  0  0  0  0  0  0  0
   -6.6221  -10.0219   28.9366 C   0  0  0  0  0  0  0  0  0  0  0  0
   -5.7689   -8.3558   28.6926 N   0  0  0  0  0  0  0  0  0  0  0  0
   -4.5543   -7.7453   29.1619 C   0  0  0  0  0  0  0  0  0  0  0  0
   -2.7724   -7.2656   28.6005 C   0  0  0  0  0  0  0  0  0  0  0  0
   -3.2129   -7.3974   27.2192 C   0  0  0  0  0  0  0  0  0  0  0  0
   -4.9898   -7.9675   27.5559 C   0  0  0  0  0  0  0  0  0  0  0  0
   -6.7444  -13.8837   28.6708 N   0  0  0  0  0  0  0  0  0  0  0  0
   -7.9092  -14.9661   27.8193 C   0  0  0  0  0  0  0  0  0  0  0  0
   -8.6227  -14.6532   26.8975 O   0  0  0  0  0  0  0  0  0  0  0  0
   -7.6954  -16.6771   28.4903 N   0  0  0  0  0  0  0  0  0  0  0  0
   -8.3187  -18.2255   27.9136 C   0  0  0  0  0  0  0  0  0  0  0  0
   -7.0960  -19.3847   26.8436 C   0  0  0  0  0  0  0  0  0  0  0  0
   -6.0444  -20.1093   26.9366 C   0  0  0  0  0  0  0  0  0  0  0  0
   -6.5928  -21.2090   27.5514 N   0  0  0  0  0  0  0  0  0  0  0  0
   -6.0213  -22.1171   28.1929 C   0  0  0  0  0  0  0  0  0  0  0  0
   -7.1707  -22.7454   28.4756 C   0  0  0  0  0  0  0  0  0  0  0  0
   -8.3093  -22.3648   28.0020 N   0  0  0  0  0  0  0  0  0  0  0  0
   -7.9467  -21.1256   27.7982 C   0  0  0  0  0  0  0  0  0  0  0  0
   -8.6187  -19.5021   28.4153 C   0  0  0  0  0  0  0  0  0  0  0  0
   -3.8947  -11.9012   28.8832 H   0  0  0  0  0  0  0  0  0  0  0  0
   -4.9918  -13.0420   29.7104 H   0  0  0  0  0  0  0  0  0  0  0  0
   -5.2914  -11.3772   29.9017 H   0  0  0  0  0  0  0  0  0  0  0  0
   -5.9397  -12.0077   27.2150 H   0  0  0  0  0  0  0  0  0  0  0  0
   -6.8025  -10.1087   29.9992 H   0  0  0  0  0  0  0  0  0  0  0  0
   -7.5409   -9.5152   28.5840 H   0  0  0  0  0  0  0  0  0  0  0  0
   -5.5212   -6.9267   29.1603 H   0  0  0  0  0  0  0  0  0  0  0  0
   -4.2447   -8.2658   30.2731 H   0  0  0  0  0  0  0  0  0  0  0  0
   -1.8825   -7.8131   28.9707 H   0  0  0  0  0  0  0  0  0  0  0  0
   -2.1950   -6.3654   28.6095 H   0  0  0  0  0  0  0  0  0  0  0  0
   -2.7526   -6.5850   26.7032 H   0  0  0  0  0  0  0  0  0  0  0  0
   -2.7357   -8.0079   26.4544 H   0  0  0  0  0  0  0  0  0  0  0  0
   -5.8430   -8.2881   27.0311 H   0  0  0  0  0  0  0  0  0  0  0  0
   -4.7469   -8.4280   26.7317 H   0  0  0  0  0  0  0  0  0  0  0  0
   -6.3402  -14.3741   29.4528 H   0  0  0  0  0  0  0  0  0  0  0  0
   -7.1072  -16.6499   29.3134 H   0  0  0  0  0  0  0  0  0  0  0  0
   -7.0353  -19.4231   25.7944 H   0  0  0  0  0  0  0  0  0  0  0  0
   -5.3772  -20.3512   26.0326 H   0  0  0  0  0  0  0  0  0  0  0  0
   -5.0232  -22.3340   28.5315 H   0  0  0  0  0  0  0  0  0  0  0  0
   -7.0275  -23.3709   29.2916 H   0  0  0  0  0  0  0  0  0  0  0  0
   -9.5425  -20.0093   28.2293 H   0  0  0  0  0  0  0  0  0  0  0  0
  1  2  1  0
  2  3  1  0
  3  4  1  0
  4  5  1  0
  5  6  1  0
  6  7  1  0
  7  8  1  0
  2  9  1  0
  9 10  1  0
 10 11  2  0
 10 12  1  0
 12 13  1  0
 13 14  1  0
 14 15  2  0
 15 16  1  0
 16 17  1  0
 17 18  2  0
 18 19  1  0
 19 20  2  0
 20 21  1  0
  8  4  1  0
 21 13  2  0
 20 16  1  0
  1 22  1  0
  1 23  1  0
  1 24  1  0
  2 25  1  0
  3 26  1  0
  3 27  1  0
  5 28  1  0
  5 29  1  0
  6 30  1  0
  6 31  1  0
  7 32  1  0
  7 33  1  0
  8 34  1  0
  8 35  1  0
  9 36  1  0
 12 37  1  0
 14 38  1  0
 15 39  1  0
 17 40  1  0
 18 41  1  0
 21 42  1  0
M  END
>  <Energy>  (329) 
1134.1359964542578

>  <compound_id>  (329) 
37715

>  <target_id>  (329) 
1

>  <reference_id>  (329) 
53

>  <inspiration_ids>  (329) 
[53, 45]

>  <energy_score>  (329) 
1105.376958536183

>  <distance_score>  (329) 
11.32035068240342

>  <path>  (329) 
/opt/xchem-fragalysis-2/maxwin/BulkDock/SCRATCH/511016/C37715-P53/C37715-P53.minimised.mol

>  <scratch_subdir>  (329) 
/opt/xchem-fragalysis-2/maxwin/BulkDock/SCRATCH/511016/C37715-P53

>  <fragmenstein_runtime>  (329) 
16.776099681854248

>  <fragmenstein_outcome>  (329) 
too moved

>  <fragmenstein_mode>  (329) 
expansion

>  <fragmenstein_error>  (329) 


$$$$
C37715-P45
     RDKit          3D

 42 44  0  0  0  0  0  0  0  0999 V2000
   -3.0368  -12.5001   25.9694 C   0  0  0  0  0  0  0  0  0  0  0  0
   -3.8683  -12.5157   24.5233 C   0  0  0  0  0  0  0  0  0  0  0  0
   -3.4436  -10.7604   23.8497 C   0  0  0  0  0  0  0  0  0  0  0  0
   -2.4976   -9.4983   24.0401 N   0  0  0  0  0  0  0  0  0  0  0  0
   -1.7174   -8.3024   25.3011 C   0  0  0  0  0  0  0  0  0  0  0  0
   -0.8648   -7.3908   24.4364 C   0  0  0  0  0  0  0  0  0  0  0  0
   -1.1655   -7.8413   23.0365 C   0  0  0  0  0  0  0  0  0  0  0  0
   -1.9792   -9.0070   22.6811 C   0  0  0  0  0  0  0  0  0  0  0  0
   -4.4073  -14.2775   23.7077 N   0  0  0  0  0  0  0  0  0  0  0  0
   -3.6851  -15.8793   23.8546 C   0  0  0  0  0  0  0  0  0  0  0  0
   -2.6849  -16.0946   24.4187 O   0  0  0  0  0  0  0  0  0  0  0  0
   -4.6933  -17.0108   23.1941 N   0  0  0  0  0  0  0  0  0  0  0  0
   -4.6448  -18.5901   23.2423 C   0  0  0  0  0  0  0  0  0  0  0  0
   -5.4900  -19.5812   22.4869 C   0  0  0  0  0  0  0  0  0  0  0  0
   -5.6440  -20.9150   22.8802 C   0  0  0  0  0  0  0  0  0  0  0  0
   -5.1477  -21.4392   24.4901 N   0  0  0  0  0  0  0  0  0  0  0  0
   -5.7733  -22.7612   25.5638 C   0  0  0  0  0  0  0  0  0  0  0  0
   -5.4909  -22.1684   26.7891 C   0  0  0  0  0  0  0  0  0  0  0  0
   -4.8882  -20.6931   26.3078 N   0  0  0  0  0  0  0  0  0  0  0  0
   -4.4996  -20.4395   25.0480 C   0  0  0  0  0  0  0  0  0  0  0  0
   -3.8507  -19.3347   24.0882 C   0  0  0  0  0  0  0  0  0  0  0  0
   -2.4895  -13.4492   26.1330 H   0  0  0  0  0  0  0  0  0  0  0  0
   -3.5961  -12.2723   26.8838 H   0  0  0  0  0  0  0  0  0  0  0  0
   -2.2892  -11.7227   25.8825 H   0  0  0  0  0  0  0  0  0  0  0  0
   -2.8854  -12.6949   24.5793 H   0  0  0  0  0  0  0  0  0  0  0  0
   -4.3028  -11.0551   24.4040 H   0  0  0  0  0  0  0  0  0  0  0  0
   -3.6608  -10.4215   22.7731 H   0  0  0  0  0  0  0  0  0  0  0  0
   -0.9780   -8.5540   26.0734 H   0  0  0  0  0  0  0  0  0  0  0  0
   -2.3495   -7.7184   25.9858 H   0  0  0  0  0  0  0  0  0  0  0  0
    0.1811   -7.5796   24.5735 H   0  0  0  0  0  0  0  0  0  0  0  0
   -1.0349   -6.3411   24.6754 H   0  0  0  0  0  0  0  0  0  0  0  0
   -0.2902   -7.7898   22.3923 H   0  0  0  0  0  0  0  0  0  0  0  0
   -2.0676   -7.3033   22.8832 H   0  0  0  0  0  0  0  0  0  0  0  0
   -2.8097   -8.7752   21.9948 H   0  0  0  0  0  0  0  0  0  0  0  0
   -1.3164   -9.6881   22.1257 H   0  0  0  0  0  0  0  0  0  0  0  0
   -5.3155  -14.3593   23.2473 H   0  0  0  0  0  0  0  0  0  0  0  0
   -5.5214  -16.5523   22.8426 H   0  0  0  0  0  0  0  0  0  0  0  0
   -5.9143  -19.2374   21.5491 H   0  0  0  0  0  0  0  0  0  0  0  0
   -6.2332  -21.6626   22.3554 H   0  0  0  0  0  0  0  0  0  0  0  0
   -6.1399  -23.6114   25.0303 H   0  0  0  0  0  0  0  0  0  0  0  0
   -5.6502  -22.3958   27.8319 H   0  0  0  0  0  0  0  0  0  0  0  0
   -2.9356  -18.8876   24.4736 H   0  0  0  0  0  0  0  0  0  0  0  0
  1  2  1  0
  2  3  1  0
  3  4  1  0
  4  5  1  0
  5  6  1  0
  6  7  1  0
  7  8  1  0
  2  9  1  0
  9 10  1  0
 10 11  2  0
 10 12  1  0
 12 13  1  0
 13 14  1  0
 14 15  2  0
 15 16  1  0
 16 17  1  0
 17 18  2  0
 18 19  1  0
 19 20  2  0
 20 21  1  0
  8  4  1  0
 21 13  2  0
 20 16  1  0
  1 22  1  0
  1 23  1  0
  1 24  1  0
  2 25  1  0
  3 26  1  0
  3 27  1  0
  5 28  1  0
  5 29  1  0
  6 30  1  0
  6 31  1  0
  7 32  1  0
  7 33  1  0
  8 34  1  0
  8 35  1  0
  9 36  1  0
 12 37  1  0
 14 38  1  0
 15 39  1  0
 17 40  1  0
 18 41  1  0
 21 42  1  0
M  END
>  <Energy>  (330) 
684.38802663379136

>  <compound_id>  (330) 
37715

>  <target_id>  (330) 
1

>  <reference_id>  (330) 
45

>  <inspiration_ids>  (330) 
[53, 45]

>  <energy_score>  (330) 
655.6289887157092

>  <distance_score>  (330) 
11.397106407588371

>  <path>  (330) 
/opt/xchem-fragalysis-2/maxwin/BulkDock/SCRATCH/511016/C37715-P45/C37715-P45.minimised.mol

>  <scratch_subdir>  (330) 
/opt/xchem-fragalysis-2/maxwin/BulkDock/SCRATCH/511016/C37715-P45

>  <fragmenstein_runtime>  (330) 
14.182645797729492

>  <fragmenstein_outcome>  (330) 
too moved

>  <fragmenstein_mode>  (330) 
expansion

>  <fragmenstein_error>  (330) 


$$$$
C37716-P53
     RDKit          3D

 43 45  0  0  0  0  0  0  0  0999 V2000
   -1.6442  -16.6353   27.4734 O   0  0  0  0  0  0  0  0  0  0  0  0
   -1.9820  -16.2089   26.3915 C   0  0  0  0  0  0  0  0  0  0  0  0
   -2.2596  -14.6744   25.9046 N   0  0  0  0  0  0  0  0  0  0  0  0
   -2.0652  -13.3969   26.6163 C   0  0  0  0  0  0  0  0  0  0  0  0
   -2.4796  -11.6394   26.7674 C   0  0  0  0  0  0  0  0  0  0  0  0
   -1.7121   -9.8291   26.2915 C   0  0  0  0  0  0  0  0  0  0  0  0
   -2.1270   -7.7967   26.6016 C   0  0  0  0  0  0  0  0  0  0  0  0
   -0.9060   -7.3439   27.5100 C   0  0  0  0  0  0  0  0  0  0  0  0
   -0.1853   -7.9235   28.6657 N   0  0  0  0  0  0  0  0  0  0  0  0
   -0.5719   -8.0536   30.0356 C   0  0  0  0  0  0  0  0  0  0  0  0
   -1.6175   -7.8100   30.5811 O   0  0  0  0  0  0  0  0  0  0  0  0
    0.5708   -8.6873   30.8430 C   0  0  0  0  0  0  0  0  0  0  0  0
    0.0666   -9.7820   31.6018 O   0  0  0  0  0  0  0  0  0  0  0  0
   -0.4817   -9.3126   27.8729 C   0  0  0  0  0  0  0  0  0  0  0  0
   -2.0478  -17.4004   25.1531 C   0  0  0  0  0  0  0  0  0  0  0  0
   -0.6286  -17.8488   24.9035 C   0  0  0  0  0  0  0  0  0  0  0  0
   -0.2529  -18.4442   23.7518 C   0  0  0  0  0  0  0  0  0  0  0  0
   -1.2372  -18.9039   22.8872 N   0  0  0  0  0  0  0  0  0  0  0  0
   -1.1366  -19.6240   21.7305 C   0  0  0  0  0  0  0  0  0  0  0  0
   -2.4337  -19.8051   21.3096 C   0  0  0  0  0  0  0  0  0  0  0  0
   -3.3272  -19.2857   22.2043 N   0  0  0  0  0  0  0  0  0  0  0  0
   -2.5806  -18.7244   23.1305 C   0  0  0  0  0  0  0  0  0  0  0  0
   -2.9225  -17.8450   24.1961 C   0  0  0  0  0  0  0  0  0  0  0  0
   -2.5755  -14.6757   24.9568 H   0  0  0  0  0  0  0  0  0  0  0  0
   -1.7591  -13.8928   27.5451 H   0  0  0  0  0  0  0  0  0  0  0  0
   -1.1384  -13.1569   26.1427 H   0  0  0  0  0  0  0  0  0  0  0  0
   -2.8252  -11.6498   27.8043 H   0  0  0  0  0  0  0  0  0  0  0  0
   -3.1844  -11.8627   25.9940 H   0  0  0  0  0  0  0  0  0  0  0  0
   -1.7671   -9.7982   25.1653 H   0  0  0  0  0  0  0  0  0  0  0  0
   -2.0266   -7.1288   25.7329 H   0  0  0  0  0  0  0  0  0  0  0  0
   -3.0592   -7.5002   27.0944 H   0  0  0  0  0  0  0  0  0  0  0  0
   -0.1226   -6.8560   26.9224 H   0  0  0  0  0  0  0  0  0  0  0  0
   -1.3402   -6.4481   27.9882 H   0  0  0  0  0  0  0  0  0  0  0  0
    0.9839   -7.9361   31.5226 H   0  0  0  0  0  0  0  0  0  0  0  0
    1.3715   -9.0562   30.1967 H   0  0  0  0  0  0  0  0  0  0  0  0
   -0.6805   -9.4170   32.1168 H   0  0  0  0  0  0  0  0  0  0  0  0
    0.4958   -9.7657   28.0305 H   0  0  0  0  0  0  0  0  0  0  0  0
   -0.9565   -9.9029   28.6811 H   0  0  0  0  0  0  0  0  0  0  0  0
    0.1115  -17.6081   25.6633 H   0  0  0  0  0  0  0  0  0  0  0  0
    0.7721  -18.7044   23.5223 H   0  0  0  0  0  0  0  0  0  0  0  0
   -0.1887  -19.9153   21.3056 H   0  0  0  0  0  0  0  0  0  0  0  0
   -2.7691  -20.2935   20.4048 H   0  0  0  0  0  0  0  0  0  0  0  0
   -3.9172  -17.4574   24.0240 H   0  0  0  0  0  0  0  0  0  0  0  0
  1  2  2  0
  2  3  1  0
  3  4  1  0
  4  5  1  0
  5  6  1  0
  6  7  1  0
  7  8  1  0
  8  9  1  0
  9 10  1  0
 10 11  2  0
 10 12  1  0
 12 13  1  0
  9 14  1  0
  2 15  1  0
 15 16  1  0
 16 17  2  0
 17 18  1  0
 18 19  1  0
 19 20  2  0
 20 21  1  0
 21 22  2  0
 22 23  1  0
 14  6  1  0
 23 15  2  0
 22 18  1  0
  3 24  1  0
  4 25  1  0
  4 26  1  0
  5 27  1  0
  5 28  1  0
  6 29  1  0
  7 30  1  0
  7 31  1  0
  8 32  1  0
  8 33  1  0
 12 34  1  0
 12 35  1  0
 13 36  1  0
 14 37  1  0
 14 38  1  0
 16 39  1  0
 17 40  1  0
 19 41  1  0
 20 42  1  0
 23 43  1  0
M  END
>  <Energy>  (331) 
517.06753213522984

>  <compound_id>  (331) 
37716

>  <target_id>  (331) 
1

>  <reference_id>  (331) 
53

>  <inspiration_ids>  (331) 
[53, 45]

>  <energy_score>  (331) 
438.926691819756

>  <distance_score>  (331) 
12.718897746041847

>  <path>  (331) 
/opt/xchem-fragalysis-2/maxwin/BulkDock/SCRATCH/511016/C37716-P53/C37716-P53.minimised.mol

>  <scratch_subdir>  (331) 
/opt/xchem-fragalysis-2/maxwin/BulkDock/SCRATCH/511016/C37716-P53

>  <fragmenstein_runtime>  (331) 
31.9601309299469

>  <fragmenstein_outcome>  (331) 
too moved

>  <fragmenstein_mode>  (331) 
expansion

>  <fragmenstein_error>  (331) 


$$$$
C37716-P45
     RDKit          3D

 43 45  0  0  0  0  0  0  0  0999 V2000
   -3.3484  -15.6221   24.6511 O   0  0  0  0  0  0  0  0  0  0  0  0
   -2.1954  -15.2071   24.6726 C   0  0  0  0  0  0  0  0  0  0  0  0
   -1.5248  -13.6598   25.3034 N   0  0  0  0  0  0  0  0  0  0  0  0
   -2.3668  -12.1211   25.9981 C   0  0  0  0  0  0  0  0  0  0  0  0
   -1.5246  -10.6722   27.3644 C   0  0  0  0  0  0  0  0  0  0  0  0
    0.0311  -10.0859   28.3185 C   0  0  0  0  0  0  0  0  0  0  0  0
    0.3848   -8.5866   28.1599 C   0  0  0  0  0  0  0  0  0  0  0  0
    1.2048   -8.4377   29.4039 C   0  0  0  0  0  0  0  0  0  0  0  0
    0.4183   -8.6467   30.6311 N   0  0  0  0  0  0  0  0  0  0  0  0
   -0.7555   -8.0022   31.1023 C   0  0  0  0  0  0  0  0  0  0  0  0
   -1.4621   -7.1797   30.5775 O   0  0  0  0  0  0  0  0  0  0  0  0
   -1.0982   -8.5084   32.5108 C   0  0  0  0  0  0  0  0  0  0  0  0
   -2.5132   -8.5916   32.6517 O   0  0  0  0  0  0  0  0  0  0  0  0
    0.0516   -9.9598   29.9024 C   0  0  0  0  0  0  0  0  0  0  0  0
   -1.2435  -16.2213   23.8856 C   0  0  0  0  0  0  0  0  0  0  0  0
    0.0844  -16.0171   23.3302 C   0  0  0  0  0  0  0  0  0  0  0  0
    0.7411  -17.0793   22.8145 C   0  0  0  0  0  0  0  0  0  0  0  0
    0.1085  -18.3195   22.7238 N   0  0  0  0  0  0  0  0  0  0  0  0
    0.5749  -19.5196   22.2610 C   0  0  0  0  0  0  0  0  0  0  0  0
   -0.5010  -20.3733   22.3201 C   0  0  0  0  0  0  0  0  0  0  0  0
   -1.6078  -19.7443   22.8207 N   0  0  0  0  0  0  0  0  0  0  0  0
   -1.2060  -18.5226   23.0883 C   0  0  0  0  0  0  0  0  0  0  0  0
   -1.8662  -17.4261   23.6856 C   0  0  0  0  0  0  0  0  0  0  0  0
   -0.5394  -13.5869   25.0891 H   0  0  0  0  0  0  0  0  0  0  0  0
   -2.8868  -11.8534   25.1083 H   0  0  0  0  0  0  0  0  0  0  0  0
   -3.2080  -12.5501   26.5475 H   0  0  0  0  0  0  0  0  0  0  0  0
   -1.9797  -10.8988   28.3653 H   0  0  0  0  0  0  0  0  0  0  0  0
   -1.0607   -9.7262   27.1136 H   0  0  0  0  0  0  0  0  0  0  0  0
    0.9004  -10.6900   28.0209 H   0  0  0  0  0  0  0  0  0  0  0  0
   -0.4825   -7.9214   28.1956 H   0  0  0  0  0  0  0  0  0  0  0  0
    0.9797   -8.3104   27.2908 H   0  0  0  0  0  0  0  0  0  0  0  0
    2.1306   -9.0363   29.4208 H   0  0  0  0  0  0  0  0  0  0  0  0
    1.5381   -7.3927   29.4610 H   0  0  0  0  0  0  0  0  0  0  0  0
   -0.6744   -9.4983   32.6970 H   0  0  0  0  0  0  0  0  0  0  0  0
   -0.7030   -7.8051   33.2496 H   0  0  0  0  0  0  0  0  0  0  0  0
   -2.8458   -7.6916   32.4636 H   0  0  0  0  0  0  0  0  0  0  0  0
   -0.9183  -10.2630   30.3090 H   0  0  0  0  0  0  0  0  0  0  0  0
    0.7898  -10.6682   30.3122 H   0  0  0  0  0  0  0  0  0  0  0  0
    0.5455  -15.0369   23.3901 H   0  0  0  0  0  0  0  0  0  0  0  0
    1.7534  -17.0151   22.4349 H   0  0  0  0  0  0  0  0  0  0  0  0
    1.5911  -19.6577   21.9235 H   0  0  0  0  0  0  0  0  0  0  0  0
   -0.5190  -21.4097   22.0268 H   0  0  0  0  0  0  0  0  0  0  0  0
   -2.8776  -17.6482   23.9992 H   0  0  0  0  0  0  0  0  0  0  0  0
  1  2  2  0
  2  3  1  0
  3  4  1  0
  4  5  1  0
  5  6  1  0
  6  7  1  0
  7  8  1  0
  8  9  1  0
  9 10  1  0
 10 11  2  0
 10 12  1  0
 12 13  1  0
  9 14  1  0
  2 15  1  0
 15 16  1  0
 16 17  2  0
 17 18  1  0
 18 19  1  0
 19 20  2  0
 20 21  1  0
 21 22  2  0
 22 23  1  0
 14  6  1  0
 23 15  2  0
 22 18  1  0
  3 24  1  0
  4 25  1  0
  4 26  1  0
  5 27  1  0
  5 28  1  0
  6 29  1  0
  7 30  1  0
  7 31  1  0
  8 32  1  0
  8 33  1  0
 12 34  1  0
 12 35  1  0
 13 36  1  0
 14 37  1  0
 14 38  1  0
 16 39  1  0
 17 40  1  0
 19 41  1  0
 20 42  1  0
 23 43  1  0
M  END
>  <Energy>  (332) 
459.52799626330773

>  <compound_id>  (332) 
37716

>  <target_id>  (332) 
1

>  <reference_id>  (332) 
45

>  <inspiration_ids>  (332) 
[53, 45]

>  <energy_score>  (332) 
381.38715594782764

>  <distance_score>  (332) 
13.56246682306817

>  <path>  (332) 
/opt/xchem-fragalysis-2/maxwin/BulkDock/SCRATCH/511016/C37716-P45/C37716-P45.minimised.mol

>  <scratch_subdir>  (332) 
/opt/xchem-fragalysis-2/maxwin/BulkDock/SCRATCH/511016/C37716-P45

>  <fragmenstein_runtime>  (332) 
19.05264663696289

>  <fragmenstein_outcome>  (332) 
too moved

>  <fragmenstein_mode>  (332) 
expansion

>  <fragmenstein_error>  (332) 


$$$$
C37718-P53
     RDKit          3D

 47 49  0  0  0  0  0  0  0  0999 V2000
   -1.3979   -5.4795   22.8802 C   0  0  0  0  0  0  0  0  0  0  0  0
   -2.3793   -6.0225   23.7465 O   0  0  0  0  0  0  0  0  0  0  0  0
   -1.9187   -6.9463   25.0717 C   0  0  0  0  0  0  0  0  0  0  0  0
   -2.5569   -8.6085   26.0738 C   0  0  0  0  0  0  0  0  0  0  0  0
   -2.4089   -7.3247   27.3980 O   0  0  0  0  0  0  0  0  0  0  0  0
   -1.7537   -7.3846   28.7465 C   0  0  0  0  0  0  0  0  0  0  0  0
   -2.1796  -10.7036   26.7146 C   0  0  0  0  0  0  0  0  0  0  0  0
   -1.3509  -10.7169   27.6255 O   0  0  0  0  0  0  0  0  0  0  0  0
   -2.9720  -12.3342   26.2529 N   0  0  0  0  0  0  0  0  0  0  0  0
   -4.3735  -12.5376   27.1365 C   0  0  0  0  0  0  0  0  0  0  0  0
   -5.7944  -14.2185   27.9395 C   0  0  0  0  0  0  0  0  0  0  0  0
   -3.8776  -15.6337   28.0978 C   0  0  0  0  0  0  0  0  0  0  0  0
   -4.0564  -17.2438   27.8071 N   0  0  0  0  0  0  0  0  0  0  0  0
   -5.6092  -18.3830   27.8050 C   0  0  0  0  0  0  0  0  0  0  0  0
   -6.6034  -17.8089   28.1315 O   0  0  0  0  0  0  0  0  0  0  0  0
   -6.0034  -20.4460   27.3391 C   0  0  0  0  0  0  0  0  0  0  0  0
   -5.8515  -21.9519   28.5513 C   0  0  0  0  0  0  0  0  0  0  0  0
   -4.9168  -22.8844   28.8966 C   0  0  0  0  0  0  0  0  0  0  0  0
   -4.3632  -23.4024   27.2923 N   0  0  0  0  0  0  0  0  0  0  0  0
   -4.0475  -24.9478   26.5163 C   0  0  0  0  0  0  0  0  0  0  0  0
   -3.8915  -24.1817   27.6367 C   0  0  0  0  0  0  0  0  0  0  0  0
   -4.4989  -22.4912   27.1555 N   0  0  0  0  0  0  0  0  0  0  0  0
   -5.7186  -22.4967   26.4441 C   0  0  0  0  0  0  0  0  0  0  0  0
   -6.7664  -21.6634   27.3876 C   0  0  0  0  0  0  0  0  0  0  0  0
   -2.6175  -14.2560   26.8755 C   0  0  0  0  0  0  0  0  0  0  0  0
   -1.8760   -4.7213   22.2538 H   0  0  0  0  0  0  0  0  0  0  0  0
   -0.5661   -5.0227   23.4005 H   0  0  0  0  0  0  0  0  0  0  0  0
   -1.0160   -6.2639   22.2219 H   0  0  0  0  0  0  0  0  0  0  0  0
   -1.7410   -6.0918   25.6818 H   0  0  0  0  0  0  0  0  0  0  0  0
   -1.3574   -7.3302   24.2864 H   0  0  0  0  0  0  0  0  0  0  0  0
   -3.5135   -8.2832   26.3616 H   0  0  0  0  0  0  0  0  0  0  0  0
   -1.2139   -6.4690   29.0145 H   0  0  0  0  0  0  0  0  0  0  0  0
   -2.5006   -7.2717   29.5106 H   0  0  0  0  0  0  0  0  0  0  0  0
   -1.0669   -8.2270   28.9163 H   0  0  0  0  0  0  0  0  0  0  0  0
   -3.8869  -12.0537   28.0768 H   0  0  0  0  0  0  0  0  0  0  0  0
   -5.1965  -11.8146   27.0120 H   0  0  0  0  0  0  0  0  0  0  0  0
   -6.5140  -13.6698   27.2038 H   0  0  0  0  0  0  0  0  0  0  0  0
   -6.1724  -13.9842   28.9948 H   0  0  0  0  0  0  0  0  0  0  0  0
   -3.2723  -15.6476   29.0725 H   0  0  0  0  0  0  0  0  0  0  0  0
   -3.1845  -17.8590   27.5952 H   0  0  0  0  0  0  0  0  0  0  0  0
   -6.7973  -22.5727   28.8971 H   0  0  0  0  0  0  0  0  0  0  0  0
   -5.3114  -23.7930   29.3587 H   0  0  0  0  0  0  0  0  0  0  0  0
   -4.0095  -24.8549   25.4405 H   0  0  0  0  0  0  0  0  0  0  0  0
   -4.2087  -24.7741   28.4978 H   0  0  0  0  0  0  0  0  0  0  0  0
   -7.8169  -21.8265   27.4197 H   0  0  0  0  0  0  0  0  0  0  0  0
   -2.4153  -14.7117   25.9070 H   0  0  0  0  0  0  0  0  0  0  0  0
   -1.6723  -14.2396   27.4272 H   0  0  0  0  0  0  0  0  0  0  0  0
  1  2  1  0
  2  3  1  0
  3  4  1  0
  4  5  1  0
  5  6  1  0
  4  7  1  0
  7  8  2  0
  7  9  1  0
  9 10  1  0
 10 11  1  0
 11 12  1  0
 12 13  1  0
 13 14  1  0
 14 15  2  0
 14 16  1  0
 16 17  1  0
 17 18  2  0
 18 19  1  0
 19 20  1  0
 20 21  2  0
 21 22  1  0
 22 23  2  0
 23 24  1  0
 12 25  1  0
 25  9  1  0
 24 16  2  0
 23 19  1  0
  1 26  1  0
  1 27  1  0
  1 28  1  0
  3 29  1  0
  3 30  1  0
  4 31  1  0
  6 32  1  0
  6 33  1  0
  6 34  1  0
 10 35  1  0
 10 36  1  0
 11 37  1  0
 11 38  1  0
 12 39  1  0
 13 40  1  0
 17 41  1  0
 18 42  1  0
 20 43  1  0
 21 44  1  0
 24 45  1  0
 25 46  1  0
 25 47  1  0
M  END
>  <Energy>  (333) 
2683.7674302515134

>  <compound_id>  (333) 
37718

>  <target_id>  (333) 
1

>  <reference_id>  (333) 
53

>  <inspiration_ids>  (333) 
[53, 45]

>  <energy_score>  (333) 
2540.7851380034285

>  <distance_score>  (333) 
8.883626934710744

>  <path>  (333) 
/opt/xchem-fragalysis-2/maxwin/BulkDock/SCRATCH/511016/C37718-P53/C37718-P53.minimised.mol

>  <scratch_subdir>  (333) 
/opt/xchem-fragalysis-2/maxwin/BulkDock/SCRATCH/511016/C37718-P53

>  <fragmenstein_runtime>  (333) 
31.25842785835266

>  <fragmenstein_outcome>  (333) 
too moved

>  <fragmenstein_mode>  (333) 
expansion

>  <fragmenstein_error>  (333) 


$$$$
C37718-P45
     RDKit          3D

 47 49  0  0  0  0  0  0  0  0999 V2000
   -0.6966   -6.6600   26.1335 C   0  0  0  0  0  0  0  0  0  0  0  0
   -1.9944   -6.2738   26.5724 O   0  0  0  0  0  0  0  0  0  0  0  0
   -2.9271   -7.4111   26.8077 C   0  0  0  0  0  0  0  0  0  0  0  0
   -4.5997   -8.1106   27.7027 C   0  0  0  0  0  0  0  0  0  0  0  0
   -3.5539   -7.4522   29.1055 O   0  0  0  0  0  0  0  0  0  0  0  0
   -1.8730   -7.2431   29.4025 C   0  0  0  0  0  0  0  0  0  0  0  0
   -6.0440   -9.6594   27.3586 C   0  0  0  0  0  0  0  0  0  0  0  0
   -7.1822   -9.2348   27.2720 O   0  0  0  0  0  0  0  0  0  0  0  0
   -5.6780  -11.6332   27.3520 N   0  0  0  0  0  0  0  0  0  0  0  0
   -5.6723  -12.2857   29.0192 C   0  0  0  0  0  0  0  0  0  0  0  0
   -6.4741  -13.9561   29.4005 C   0  0  0  0  0  0  0  0  0  0  0  0
   -7.4715  -14.6344   28.0979 C   0  0  0  0  0  0  0  0  0  0  0  0
   -8.2345  -16.4284   27.7372 N   0  0  0  0  0  0  0  0  0  0  0  0
   -8.0674  -18.0544   28.6291 C   0  0  0  0  0  0  0  0  0  0  0  0
   -7.3493  -18.1165   29.5848 O   0  0  0  0  0  0  0  0  0  0  0  0
   -8.7627  -19.8998   28.2138 C   0  0  0  0  0  0  0  0  0  0  0  0
  -10.0523  -21.2920   28.5911 C   0  0  0  0  0  0  0  0  0  0  0  0
  -10.0016  -22.6430   28.3855 C   0  0  0  0  0  0  0  0  0  0  0  0
   -8.8193  -23.2766   28.0218 N   0  0  0  0  0  0  0  0  0  0  0  0
   -8.5334  -24.6049   27.8390 C   0  0  0  0  0  0  0  0  0  0  0  0
   -7.2164  -24.6394   27.4461 C   0  0  0  0  0  0  0  0  0  0  0  0
   -6.6776  -23.3817   27.4379 N   0  0  0  0  0  0  0  0  0  0  0  0
   -7.6681  -22.5668   27.7511 C   0  0  0  0  0  0  0  0  0  0  0  0
   -7.6910  -21.0843   27.7195 C   0  0  0  0  0  0  0  0  0  0  0  0
   -6.8529  -13.1152   27.0891 C   0  0  0  0  0  0  0  0  0  0  0  0
    0.0179   -5.9385   26.5273 H   0  0  0  0  0  0  0  0  0  0  0  0
   -0.6659   -6.6787   25.0419 H   0  0  0  0  0  0  0  0  0  0  0  0
   -0.3975   -7.6328   26.5329 H   0  0  0  0  0  0  0  0  0  0  0  0
   -2.3296   -7.4057   27.6370 H   0  0  0  0  0  0  0  0  0  0  0  0
   -2.5191   -8.1429   26.0972 H   0  0  0  0  0  0  0  0  0  0  0  0
   -5.2733   -7.8382   28.5181 H   0  0  0  0  0  0  0  0  0  0  0  0
   -1.4541   -6.3827   28.8687 H   0  0  0  0  0  0  0  0  0  0  0  0
   -1.8213   -7.1008   30.4898 H   0  0  0  0  0  0  0  0  0  0  0  0
   -1.2461   -8.1093   29.1421 H   0  0  0  0  0  0  0  0  0  0  0  0
   -5.6031  -11.5237   29.7927 H   0  0  0  0  0  0  0  0  0  0  0  0
   -4.5775  -12.4212   29.2605 H   0  0  0  0  0  0  0  0  0  0  0  0
   -5.8213  -14.7122   29.8123 H   0  0  0  0  0  0  0  0  0  0  0  0
   -6.8958  -13.8443   30.4076 H   0  0  0  0  0  0  0  0  0  0  0  0
   -8.4841  -14.2327   28.2632 H   0  0  0  0  0  0  0  0  0  0  0  0
   -8.9319  -16.5281   27.0186 H   0  0  0  0  0  0  0  0  0  0  0  0
  -10.8802  -21.0995   29.2922 H   0  0  0  0  0  0  0  0  0  0  0  0
  -10.8182  -23.2973   28.6716 H   0  0  0  0  0  0  0  0  0  0  0  0
   -9.2746  -25.3802   27.9639 H   0  0  0  0  0  0  0  0  0  0  0  0
   -6.6252  -25.5040   27.1680 H   0  0  0  0  0  0  0  0  0  0  0  0
   -6.6891  -20.8408   27.4620 H   0  0  0  0  0  0  0  0  0  0  0  0
   -6.6162  -13.4755   26.1308 H   0  0  0  0  0  0  0  0  0  0  0  0
   -7.7932  -12.6476   26.9742 H   0  0  0  0  0  0  0  0  0  0  0  0
  1  2  1  0
  2  3  1  0
  3  4  1  0
  4  5  1  0
  5  6  1  0
  4  7  1  0
  7  8  2  0
  7  9  1  0
  9 10  1  0
 10 11  1  0
 11 12  1  0
 12 13  1  0
 13 14  1  0
 14 15  2  0
 14 16  1  0
 16 17  1  0
 17 18  2  0
 18 19  1  0
 19 20  1  0
 20 21  2  0
 21 22  1  0
 22 23  2  0
 23 24  1  0
 12 25  1  0
 25  9  1  0
 24 16  2  0
 23 19  1  0
  1 26  1  0
  1 27  1  0
  1 28  1  0
  3 29  1  0
  3 30  1  0
  4 31  1  0
  6 32  1  0
  6 33  1  0
  6 34  1  0
 10 35  1  0
 10 36  1  0
 11 37  1  0
 11 38  1  0
 12 39  1  0
 13 40  1  0
 17 41  1  0
 18 42  1  0
 20 43  1  0
 21 44  1  0
 24 45  1  0
 25 46  1  0
 25 47  1  0
M  END
>  <Energy>  (334) 
1303.1159657448188

>  <compound_id>  (334) 
37718

>  <target_id>  (334) 
1

>  <reference_id>  (334) 
45

>  <inspiration_ids>  (334) 
[53, 45]

>  <energy_score>  (334) 
1160.1336734967463

>  <distance_score>  (334) 
9.119441124250748

>  <path>  (334) 
/opt/xchem-fragalysis-2/maxwin/BulkDock/SCRATCH/511016/C37718-P45/C37718-P45.minimised.mol

>  <scratch_subdir>  (334) 
/opt/xchem-fragalysis-2/maxwin/BulkDock/SCRATCH/511016/C37718-P45

>  <fragmenstein_runtime>  (334) 
30.223116874694824

>  <fragmenstein_outcome>  (334) 
too moved

>  <fragmenstein_mode>  (334) 
expansion

>  <fragmenstein_error>  (334) 


$$$$
C37719-P53
     RDKit          3D

 44 46  0  0  0  0  0  0  0  0999 V2000
   -2.6242   -5.6433   21.3752 C   0  0  0  0  0  0  0  0  0  0  0  0
   -3.4356   -6.9208   21.3732 C   0  0  0  0  0  0  0  0  0  0  0  0
   -3.4303   -7.6247   20.3934 O   0  0  0  0  0  0  0  0  0  0  0  0
   -4.0678   -7.0971   22.6413 N   0  0  0  0  0  0  0  0  0  0  0  0
   -5.2443   -6.6975   22.9492 C   0  0  0  0  0  0  0  0  0  0  0  0
   -6.3129   -7.1242   24.6632 C   0  0  0  0  0  0  0  0  0  0  0  0
   -6.7636   -9.1751   24.4621 C   0  0  0  0  0  0  0  0  0  0  0  0
   -6.2220  -11.2879   23.6895 C   0  0  0  0  0  0  0  0  0  0  0  0
   -6.0831  -13.3543   23.8941 N   0  0  0  0  0  0  0  0  0  0  0  0
   -6.4787  -12.4252   25.5354 C   0  0  0  0  0  0  0  0  0  0  0  0
   -4.6560  -14.7329   23.4478 C   0  0  0  0  0  0  0  0  0  0  0  0
   -3.8032  -15.0592   24.1871 O   0  0  0  0  0  0  0  0  0  0  0  0
   -4.6219  -15.8941   21.8616 N   0  0  0  0  0  0  0  0  0  0  0  0
   -3.8052  -17.1563   21.4846 C   0  0  0  0  0  0  0  0  0  0  0  0
   -4.6908  -17.8267   20.4425 C   0  0  0  0  0  0  0  0  0  0  0  0
   -4.3817  -18.9754   19.8204 C   0  0  0  0  0  0  0  0  0  0  0  0
   -3.1828  -19.5787   20.1135 N   0  0  0  0  0  0  0  0  0  0  0  0
   -2.5340  -20.6031   19.4809 C   0  0  0  0  0  0  0  0  0  0  0  0
   -1.3178  -20.6980   20.1175 C   0  0  0  0  0  0  0  0  0  0  0  0
   -1.2409  -19.8329   21.1711 N   0  0  0  0  0  0  0  0  0  0  0  0
   -2.3506  -19.1271   21.1068 C   0  0  0  0  0  0  0  0  0  0  0  0
   -2.7396  -17.9607   21.8209 C   0  0  0  0  0  0  0  0  0  0  0  0
   -4.8522   -8.2583   23.2214 C   0  0  0  0  0  0  0  0  0  0  0  0
   -1.7933   -5.7452   20.6704 H   0  0  0  0  0  0  0  0  0  0  0  0
   -2.1975   -5.4490   22.3635 H   0  0  0  0  0  0  0  0  0  0  0  0
   -3.2569   -4.8083   21.0643 H   0  0  0  0  0  0  0  0  0  0  0  0
   -5.6376   -5.9115   22.2259 H   0  0  0  0  0  0  0  0  0  0  0  0
   -4.4884   -6.2639   23.5986 H   0  0  0  0  0  0  0  0  0  0  0  0
   -7.1188   -6.4380   24.3011 H   0  0  0  0  0  0  0  0  0  0  0  0
   -6.6345   -6.5778   25.5309 H   0  0  0  0  0  0  0  0  0  0  0  0
   -7.1063   -9.6672   25.4590 H   0  0  0  0  0  0  0  0  0  0  0  0
   -5.2821  -11.5536   24.1835 H   0  0  0  0  0  0  0  0  0  0  0  0
   -6.9126  -11.4950   22.8871 H   0  0  0  0  0  0  0  0  0  0  0  0
   -7.1682  -11.5938   25.4315 H   0  0  0  0  0  0  0  0  0  0  0  0
   -6.9157  -13.1992   26.2082 H   0  0  0  0  0  0  0  0  0  0  0  0
   -5.9228  -11.7795   26.2094 H   0  0  0  0  0  0  0  0  0  0  0  0
   -5.3614  -15.6770   21.3296 H   0  0  0  0  0  0  0  0  0  0  0  0
   -5.6540  -17.3773   20.2205 H   0  0  0  0  0  0  0  0  0  0  0  0
   -5.0141  -19.4338   19.0722 H   0  0  0  0  0  0  0  0  0  0  0  0
   -2.9569  -21.1233   18.6348 H   0  0  0  0  0  0  0  0  0  0  0  0
   -0.4970  -21.3621   19.8821 H   0  0  0  0  0  0  0  0  0  0  0  0
   -2.0228  -17.7983   22.6150 H   0  0  0  0  0  0  0  0  0  0  0  0
   -3.8787   -9.0489   23.2998 H   0  0  0  0  0  0  0  0  0  0  0  0
   -4.6709   -8.7836   22.2586 H   0  0  0  0  0  0  0  0  0  0  0  0
  1  2  1  0
  2  3  2  0
  2  4  1  0
  4  5  1  0
  5  6  1  0
  6  7  1  0
  7  8  1  0
  8  9  1  0
  9 10  1  0
  9 11  1  0
 11 12  2  0
 11 13  1  0
 13 14  1  0
 14 15  1  0
 15 16  2  0
 16 17  1  0
 17 18  1  0
 18 19  2  0
 19 20  1  0
 20 21  2  0
 21 22  1  0
  7 23  1  0
 23  4  1  0
 22 14  2  0
 21 17  1  0
  1 24  1  0
  1 25  1  0
  1 26  1  0
  5 27  1  0
  5 28  1  0
  6 29  1  0
  6 30  1  0
  7 31  1  0
  8 32  1  0
  8 33  1  0
 10 34  1  0
 10 35  1  0
 10 36  1  0
 13 37  1  0
 15 38  1  0
 16 39  1  0
 18 40  1  0
 19 41  1  0
 22 42  1  0
 23 43  1  0
 23 44  1  0
M  END
>  <Energy>  (335) 
1668.6729313673386

>  <compound_id>  (335) 
37719

>  <target_id>  (335) 
1

>  <reference_id>  (335) 
53

>  <inspiration_ids>  (335) 
[53, 45]

>  <energy_score>  (335) 
1663.6962665911296

>  <distance_score>  (335) 
13.707509710730758

>  <path>  (335) 
/opt/xchem-fragalysis-2/maxwin/BulkDock/SCRATCH/511016/C37719-P53/C37719-P53.minimised.mol

>  <scratch_subdir>  (335) 
/opt/xchem-fragalysis-2/maxwin/BulkDock/SCRATCH/511016/C37719-P53

>  <fragmenstein_runtime>  (335) 
41.432117223739624

>  <fragmenstein_outcome>  (335) 
too moved

>  <fragmenstein_mode>  (335) 
expansion

>  <fragmenstein_error>  (335) 


$$$$
C37719-P45
     RDKit          3D

 44 46  0  0  0  0  0  0  0  0999 V2000
   -0.1316  -11.5123   15.5946 C   0  0  0  0  0  0  0  0  0  0  0  0
   -0.3086  -12.6669   16.5590 C   0  0  0  0  0  0  0  0  0  0  0  0
   -0.3725  -13.7951   16.1472 O   0  0  0  0  0  0  0  0  0  0  0  0
   -0.3531  -12.1628   17.8933 N   0  0  0  0  0  0  0  0  0  0  0  0
   -1.7713  -11.8479   18.2855 C   0  0  0  0  0  0  0  0  0  0  0  0
   -2.5591  -13.1020   18.5797 C   0  0  0  0  0  0  0  0  0  0  0  0
   -1.5485  -13.8604   19.3909 C   0  0  0  0  0  0  0  0  0  0  0  0
   -1.2918  -15.3678   18.9440 C   0  0  0  0  0  0  0  0  0  0  0  0
   -1.0005  -16.5628   19.9685 N   0  0  0  0  0  0  0  0  0  0  0  0
    0.1353  -15.6982   20.3254 C   0  0  0  0  0  0  0  0  0  0  0  0
   -2.2311  -16.8997   20.7274 C   0  0  0  0  0  0  0  0  0  0  0  0
   -2.6297  -16.4823   21.7577 O   0  0  0  0  0  0  0  0  0  0  0  0
   -2.7553  -17.9846   19.8609 N   0  0  0  0  0  0  0  0  0  0  0  0
   -3.8006  -18.8759   20.0548 C   0  0  0  0  0  0  0  0  0  0  0  0
   -3.8384  -19.9662   19.0631 C   0  0  0  0  0  0  0  0  0  0  0  0
   -4.7191  -20.9731   19.1770 C   0  0  0  0  0  0  0  0  0  0  0  0
   -5.6114  -20.9680   20.2351 N   0  0  0  0  0  0  0  0  0  0  0  0
   -6.5663  -21.8953   20.5563 C   0  0  0  0  0  0  0  0  0  0  0  0
   -7.2123  -21.3766   21.6464 C   0  0  0  0  0  0  0  0  0  0  0  0
   -6.6532  -20.1805   22.0258 N   0  0  0  0  0  0  0  0  0  0  0  0
   -5.6593  -19.9579   21.1885 C   0  0  0  0  0  0  0  0  0  0  0  0
   -4.6825  -18.9010   21.0863 C   0  0  0  0  0  0  0  0  0  0  0  0
   -0.3820  -12.8792   19.2115 C   0  0  0  0  0  0  0  0  0  0  0  0
    0.0210  -10.5624   16.1152 H   0  0  0  0  0  0  0  0  0  0  0  0
    0.7439  -11.7040   14.9679 H   0  0  0  0  0  0  0  0  0  0  0  0
   -1.0240  -11.4314   14.9681 H   0  0  0  0  0  0  0  0  0  0  0  0
   -1.8040  -11.1027   19.0987 H   0  0  0  0  0  0  0  0  0  0  0  0
   -2.2457  -11.3373   17.4356 H   0  0  0  0  0  0  0  0  0  0  0  0
   -3.4792  -12.8791   19.1259 H   0  0  0  0  0  0  0  0  0  0  0  0
   -2.8276  -13.6275   17.6571 H   0  0  0  0  0  0  0  0  0  0  0  0
   -1.8850  -13.8847   20.4178 H   0  0  0  0  0  0  0  0  0  0  0  0
   -0.5761  -15.4375   18.1108 H   0  0  0  0  0  0  0  0  0  0  0  0
   -2.2411  -15.6924   18.4925 H   0  0  0  0  0  0  0  0  0  0  0  0
    0.8712  -15.5140   19.5316 H   0  0  0  0  0  0  0  0  0  0  0  0
    0.7054  -16.3437   21.0123 H   0  0  0  0  0  0  0  0  0  0  0  0
   -0.1063  -14.8667   20.9929 H   0  0  0  0  0  0  0  0  0  0  0  0
   -2.1166  -18.1326   19.0905 H   0  0  0  0  0  0  0  0  0  0  0  0
   -3.1313  -19.9577   18.2401 H   0  0  0  0  0  0  0  0  0  0  0  0
   -4.7706  -21.7996   18.4799 H   0  0  0  0  0  0  0  0  0  0  0  0
   -6.7141  -22.8005   19.9857 H   0  0  0  0  0  0  0  0  0  0  0  0
   -8.0524  -21.8068   22.1735 H   0  0  0  0  0  0  0  0  0  0  0  0
   -4.6802  -18.1491   21.8682 H   0  0  0  0  0  0  0  0  0  0  0  0
   -0.3043  -12.1575   20.0427 H   0  0  0  0  0  0  0  0  0  0  0  0
    0.5742  -13.4103   19.2339 H   0  0  0  0  0  0  0  0  0  0  0  0
  1  2  1  0
  2  3  2  0
  2  4  1  0
  4  5  1  0
  5  6  1  0
  6  7  1  0
  7  8  1  0
  8  9  1  0
  9 10  1  0
  9 11  1  0
 11 12  2  0
 11 13  1  0
 13 14  1  0
 14 15  1  0
 15 16  2  0
 16 17  1  0
 17 18  1  0
 18 19  2  0
 19 20  1  0
 20 21  2  0
 21 22  1  0
  7 23  1  0
 23  4  1  0
 22 14  2  0
 21 17  1  0
  1 24  1  0
  1 25  1  0
  1 26  1  0
  5 27  1  0
  5 28  1  0
  6 29  1  0
  6 30  1  0
  7 31  1  0
  8 32  1  0
  8 33  1  0
 10 34  1  0
 10 35  1  0
 10 36  1  0
 13 37  1  0
 15 38  1  0
 16 39  1  0
 18 40  1  0
 19 41  1  0
 22 42  1  0
 23 43  1  0
 23 44  1  0
M  END
>  <Energy>  (336) 
98.62586686042134

>  <compound_id>  (336) 
37719

>  <target_id>  (336) 
1

>  <reference_id>  (336) 
45

>  <inspiration_ids>  (336) 
[53, 45]

>  <energy_score>  (336) 
93.64920208421108

>  <distance_score>  (336) 
15.282308559926664

>  <path>  (336) 
/opt/xchem-fragalysis-2/maxwin/BulkDock/SCRATCH/511016/C37719-P45/C37719-P45.minimised.mol

>  <scratch_subdir>  (336) 
/opt/xchem-fragalysis-2/maxwin/BulkDock/SCRATCH/511016/C37719-P45

>  <fragmenstein_runtime>  (336) 
22.751914978027344

>  <fragmenstein_outcome>  (336) 
too moved

>  <fragmenstein_mode>  (336) 
expansion

>  <fragmenstein_error>  (336) 


$$$$
C37724-P53
     RDKit          3D

 40 43  0  0  0  0  0  0  0  0999 V2000
   -6.7535  -17.4268   23.2526 O   0  0  0  0  0  0  0  0  0  0  0  0
   -6.0916  -17.3424   24.2736 C   0  0  0  0  0  0  0  0  0  0  0  0
   -5.8099  -18.7172   25.8114 N   0  0  0  0  0  0  0  0  0  0  0  0
   -6.2713  -19.7503   26.0415 C   0  0  0  0  0  0  0  0  0  0  0  0
   -5.1194  -20.7438   25.6124 C   0  0  0  0  0  0  0  0  0  0  0  0
   -5.2130  -21.6764   26.5725 C   0  0  0  0  0  0  0  0  0  0  0  0
   -6.0833  -21.8416   27.5130 N   0  0  0  0  0  0  0  0  0  0  0  0
   -5.7581  -22.3598   28.6325 C   0  0  0  0  0  0  0  0  0  0  0  0
   -7.0032  -22.8854   28.7860 C   0  0  0  0  0  0  0  0  0  0  0  0
   -8.0125  -22.5793   27.9938 N   0  0  0  0  0  0  0  0  0  0  0  0
   -7.3483  -21.6298   27.5063 C   0  0  0  0  0  0  0  0  0  0  0  0
   -7.3630  -20.2964   27.1078 C   0  0  0  0  0  0  0  0  0  0  0  0
   -4.7981  -15.4502   25.1060 C   0  0  0  0  0  0  0  0  0  0  0  0
   -6.8071  -14.5338   25.6720 C   0  0  0  0  0  0  0  0  0  0  0  0
   -6.5886  -13.2880   27.1260 C   0  0  0  0  0  0  0  0  0  0  0  0
   -5.0614  -12.0373   26.9777 C   0  0  0  0  0  0  0  0  0  0  0  0
   -6.0901  -10.1090   26.8446 C   0  0  0  0  0  0  0  0  0  0  0  0
   -6.9999   -9.2186   28.1177 C   0  0  0  0  0  0  0  0  0  0  0  0
   -7.5272   -7.9741   28.8632 C   0  0  0  0  0  0  0  0  0  0  0  0
   -6.7294   -6.9046   28.9426 C   0  0  0  0  0  0  0  0  0  0  0  0
   -5.6567   -7.2445   28.2388 C   0  0  0  0  0  0  0  0  0  0  0  0
   -5.5600   -8.4674   27.2466 N   0  0  0  0  0  0  0  0  0  0  0  0
   -3.6322  -13.6474   26.2916 N   0  0  0  0  0  0  0  0  0  0  0  0
   -5.2682  -18.3333   26.6057 H   0  0  0  0  0  0  0  0  0  0  0  0
   -4.5484  -20.4917   24.7284 H   0  0  0  0  0  0  0  0  0  0  0  0
   -4.6082  -22.4224   27.0318 H   0  0  0  0  0  0  0  0  0  0  0  0
   -4.7801  -22.6610   28.9587 H   0  0  0  0  0  0  0  0  0  0  0  0
   -7.0368  -23.4838   29.6335 H   0  0  0  0  0  0  0  0  0  0  0  0
   -8.1131  -20.1362   27.8643 H   0  0  0  0  0  0  0  0  0  0  0  0
   -4.5075  -15.0991   24.0148 H   0  0  0  0  0  0  0  0  0  0  0  0
   -7.7889  -15.0402   25.5323 H   0  0  0  0  0  0  0  0  0  0  0  0
   -6.8221  -13.5492   25.2857 H   0  0  0  0  0  0  0  0  0  0  0  0
   -6.6615  -13.7432   28.1282 H   0  0  0  0  0  0  0  0  0  0  0  0
   -7.5168  -12.7969   27.0173 H   0  0  0  0  0  0  0  0  0  0  0  0
   -5.9012  -11.8228   26.0471 H   0  0  0  0  0  0  0  0  0  0  0  0
   -6.9682   -9.8587   29.0448 H   0  0  0  0  0  0  0  0  0  0  0  0
   -8.3208   -8.1249   29.5940 H   0  0  0  0  0  0  0  0  0  0  0  0
   -6.8483   -6.0529   29.5828 H   0  0  0  0  0  0  0  0  0  0  0  0
   -4.7405   -6.6527   28.2426 H   0  0  0  0  0  0  0  0  0  0  0  0
   -2.9663  -13.0718   25.7281 H   0  0  0  0  0  0  0  0  0  0  0  0
  1  2  2  0
  2  3  1  0
  3  4  1  0
  4  5  1  0
  5  6  2  0
  6  7  1  0
  7  8  1  0
  8  9  2  0
  9 10  1  0
 10 11  2  0
 11 12  1  0
  2 13  1  0
 13 14  1  0
 14 15  1  0
 15 16  1  0
 16 17  1  0
 17 18  2  0
 18 19  1  0
 19 20  2  0
 20 21  1  0
 21 22  2  0
 16 23  1  0
 12  4  2  0
 23 13  1  0
 11  7  1  0
 22 17  1  0
  3 24  1  0
  5 25  1  0
  6 26  1  0
  8 27  1  0
  9 28  1  0
 12 29  1  0
 13 30  1  0
 14 31  1  0
 14 32  1  0
 15 33  1  0
 15 34  1  0
 16 35  1  0
 18 36  1  0
 19 37  1  0
 20 38  1  0
 21 39  1  0
 23 40  1  0
M  END
>  <Energy>  (337) 
2470.6247514117927

>  <compound_id>  (337) 
37724

>  <target_id>  (337) 
1

>  <reference_id>  (337) 
53

>  <inspiration_ids>  (337) 
[53, 45]

>  <energy_score>  (337) 
2350.656298834252

>  <distance_score>  (337) 
11.884320203597841

>  <path>  (337) 
/opt/xchem-fragalysis-2/maxwin/BulkDock/SCRATCH/511016/C37724-P53/C37724-P53.minimised.mol

>  <scratch_subdir>  (337) 
/opt/xchem-fragalysis-2/maxwin/BulkDock/SCRATCH/511016/C37724-P53

>  <fragmenstein_runtime>  (337) 
20.90258502960205

>  <fragmenstein_outcome>  (337) 
too moved

>  <fragmenstein_mode>  (337) 
expansion

>  <fragmenstein_error>  (337) 


$$$$
C37724-P45
     RDKit          3D

 40 43  0  0  0  0  0  0  0  0999 V2000
   -7.7195  -16.5444   23.3734 O   0  0  0  0  0  0  0  0  0  0  0  0
   -6.5370  -16.5711   23.0502 C   0  0  0  0  0  0  0  0  0  0  0  0
   -5.5690  -17.9315   22.6187 N   0  0  0  0  0  0  0  0  0  0  0  0
   -5.9008  -19.5940   22.6584 C   0  0  0  0  0  0  0  0  0  0  0  0
   -6.3020  -21.0636   22.0610 C   0  0  0  0  0  0  0  0  0  0  0  0
   -6.1930  -22.4258   22.6691 C   0  0  0  0  0  0  0  0  0  0  0  0
   -5.5081  -22.8415   24.2183 N   0  0  0  0  0  0  0  0  0  0  0  0
   -6.0385  -23.4678   25.5664 C   0  0  0  0  0  0  0  0  0  0  0  0
   -5.7054  -22.6522   26.6667 C   0  0  0  0  0  0  0  0  0  0  0  0
   -4.9476  -21.3225   26.1602 N   0  0  0  0  0  0  0  0  0  0  0  0
   -4.9071  -21.2985   24.7927 C   0  0  0  0  0  0  0  0  0  0  0  0
   -4.8779  -20.1062   23.6164 C   0  0  0  0  0  0  0  0  0  0  0  0
   -5.6073  -14.7931   23.2508 C   0  0  0  0  0  0  0  0  0  0  0  0
   -4.1855  -14.6230   23.8171 C   0  0  0  0  0  0  0  0  0  0  0  0
   -3.7251  -12.7293   24.5704 C   0  0  0  0  0  0  0  0  0  0  0  0
   -4.4994  -11.5578   24.1572 C   0  0  0  0  0  0  0  0  0  0  0  0
   -3.7651  -10.2056   22.7760 C   0  0  0  0  0  0  0  0  0  0  0  0
   -4.2434  -10.0127   21.4208 C   0  0  0  0  0  0  0  0  0  0  0  0
   -3.7129   -9.0151   20.5666 C   0  0  0  0  0  0  0  0  0  0  0  0
   -2.6675   -8.2151   20.9825 C   0  0  0  0  0  0  0  0  0  0  0  0
   -2.1541   -8.5009   22.2171 C   0  0  0  0  0  0  0  0  0  0  0  0
   -2.6416   -9.4777   23.0651 N   0  0  0  0  0  0  0  0  0  0  0  0
   -5.7605  -12.8915   23.5896 N   0  0  0  0  0  0  0  0  0  0  0  0
   -4.6743  -17.6233   22.3250 H   0  0  0  0  0  0  0  0  0  0  0  0
   -6.7757  -20.9816   21.0833 H   0  0  0  0  0  0  0  0  0  0  0  0
   -6.6049  -23.3101   22.1949 H   0  0  0  0  0  0  0  0  0  0  0  0
   -6.7159  -24.2894   25.5986 H   0  0  0  0  0  0  0  0  0  0  0  0
   -5.9140  -22.7288   27.7255 H   0  0  0  0  0  0  0  0  0  0  0  0
   -4.3594  -19.4778   24.2420 H   0  0  0  0  0  0  0  0  0  0  0  0
   -6.4147  -14.8102   23.9564 H   0  0  0  0  0  0  0  0  0  0  0  0
   -3.2280  -15.0734   23.5321 H   0  0  0  0  0  0  0  0  0  0  0  0
   -4.1422  -15.4579   24.5323 H   0  0  0  0  0  0  0  0  0  0  0  0
   -2.6640  -12.7088   24.9645 H   0  0  0  0  0  0  0  0  0  0  0  0
   -3.5579  -12.4790   25.6649 H   0  0  0  0  0  0  0  0  0  0  0  0
   -3.4542  -11.3587   24.2039 H   0  0  0  0  0  0  0  0  0  0  0  0
   -5.0812  -10.5997   21.0531 H   0  0  0  0  0  0  0  0  0  0  0  0
   -4.1480   -8.8749   19.5812 H   0  0  0  0  0  0  0  0  0  0  0  0
   -2.2543   -7.4330   20.3610 H   0  0  0  0  0  0  0  0  0  0  0  0
   -1.3129   -7.9377   22.6116 H   0  0  0  0  0  0  0  0  0  0  0  0
   -5.9071  -12.4984   22.6545 H   0  0  0  0  0  0  0  0  0  0  0  0
  1  2  2  0
  2  3  1  0
  3  4  1  0
  4  5  1  0
  5  6  2  0
  6  7  1  0
  7  8  1  0
  8  9  2  0
  9 10  1  0
 10 11  2  0
 11 12  1  0
  2 13  1  0
 13 14  1  0
 14 15  1  0
 15 16  1  0
 16 17  1  0
 17 18  2  0
 18 19  1  0
 19 20  2  0
 20 21  1  0
 21 22  2  0
 16 23  1  0
 12  4  2  0
 23 13  1  0
 11  7  1  0
 22 17  1  0
  3 24  1  0
  5 25  1  0
  6 26  1  0
  8 27  1  0
  9 28  1  0
 12 29  1  0
 13 30  1  0
 14 31  1  0
 14 32  1  0
 15 33  1  0
 15 34  1  0
 16 35  1  0
 18 36  1  0
 19 37  1  0
 20 38  1  0
 21 39  1  0
 23 40  1  0
M  END
>  <Energy>  (338) 
1015.8381606928754

>  <compound_id>  (338) 
37724

>  <target_id>  (338) 
1

>  <reference_id>  (338) 
45

>  <inspiration_ids>  (338) 
[53, 45]

>  <energy_score>  (338) 
895.8697081153175

>  <distance_score>  (338) 
12.187655511787499

>  <path>  (338) 
/opt/xchem-fragalysis-2/maxwin/BulkDock/SCRATCH/511016/C37724-P45/C37724-P45.minimised.mol

>  <scratch_subdir>  (338) 
/opt/xchem-fragalysis-2/maxwin/BulkDock/SCRATCH/511016/C37724-P45

>  <fragmenstein_runtime>  (338) 
11.215287446975708

>  <fragmenstein_outcome>  (338) 
too moved

>  <fragmenstein_mode>  (338) 
expansion

>  <fragmenstein_error>  (338) 


$$$$
C37726-P53
     RDKit          3D

 42 44  0  0  0  0  0  0  0  0999 V2000
   -8.6740   -9.8518   23.4767 O   0  0  0  0  0  0  0  0  0  0  0  0
   -7.7053  -10.2298   22.9224 C   0  0  0  0  0  0  0  0  0  0  0  0
   -6.6038   -9.4255   22.2022 N   0  0  0  0  0  0  0  0  0  0  0  0
   -6.4980   -7.9647   21.9149 C   0  0  0  0  0  0  0  0  0  0  0  0
   -5.2326   -7.0872   22.3725 C   0  0  0  0  0  0  0  0  0  0  0  0
   -4.8388   -6.0035   21.3339 C   0  0  0  0  0  0  0  0  0  0  0  0
   -4.0817   -4.9071   22.0882 C   0  0  0  0  0  0  0  0  0  0  0  0
   -4.1097   -5.3548   23.5337 C   0  0  0  0  0  0  0  0  0  0  0  0
   -5.2514   -6.2845   23.6387 N   0  0  0  0  0  0  0  0  0  0  0  0
   -6.5272   -5.5635   23.8771 C   0  0  0  0  0  0  0  0  0  0  0  0
   -7.4893   -6.2693   24.8477 C   0  0  0  0  0  0  0  0  0  0  0  0
   -7.0126   -6.1661   26.1172 F   0  0  0  0  0  0  0  0  0  0  0  0
   -8.6772   -5.6040   24.8371 F   0  0  0  0  0  0  0  0  0  0  0  0
   -7.2350  -11.6572   22.6232 N   0  0  0  0  0  0  0  0  0  0  0  0
   -7.7930  -12.8931   22.9679 C   0  0  0  0  0  0  0  0  0  0  0  0
   -7.5316  -14.0139   22.0410 C   0  0  0  0  0  0  0  0  0  0  0  0
   -7.9794  -15.2595   22.2886 C   0  0  0  0  0  0  0  0  0  0  0  0
   -8.7393  -15.4788   23.4261 N   0  0  0  0  0  0  0  0  0  0  0  0
   -9.4025  -16.6088   23.8270 C   0  0  0  0  0  0  0  0  0  0  0  0
  -10.0531  -16.2518   24.9849 C   0  0  0  0  0  0  0  0  0  0  0  0
   -9.7608  -14.9610   25.3370 N   0  0  0  0  0  0  0  0  0  0  0  0
   -9.0311  -14.4782   24.3481 C   0  0  0  0  0  0  0  0  0  0  0  0
   -8.5441  -13.1485   24.0682 C   0  0  0  0  0  0  0  0  0  0  0  0
   -5.8690  -10.0539   21.9052 H   0  0  0  0  0  0  0  0  0  0  0  0
   -7.4289   -7.5096   22.2624 H   0  0  0  0  0  0  0  0  0  0  0  0
   -6.5342   -7.9233   20.8193 H   0  0  0  0  0  0  0  0  0  0  0  0
   -4.3862   -7.7840   22.4330 H   0  0  0  0  0  0  0  0  0  0  0  0
   -5.7288   -5.5721   20.8598 H   0  0  0  0  0  0  0  0  0  0  0  0
   -4.2186   -6.4344   20.5403 H   0  0  0  0  0  0  0  0  0  0  0  0
   -3.0574   -4.7967   21.7189 H   0  0  0  0  0  0  0  0  0  0  0  0
   -4.5960   -3.9478   21.9619 H   0  0  0  0  0  0  0  0  0  0  0  0
   -3.1930   -5.9135   23.7622 H   0  0  0  0  0  0  0  0  0  0  0  0
   -4.1463   -4.5193   24.2406 H   0  0  0  0  0  0  0  0  0  0  0  0
   -6.3195   -4.5876   24.3354 H   0  0  0  0  0  0  0  0  0  0  0  0
   -7.0452   -5.3321   22.9390 H   0  0  0  0  0  0  0  0  0  0  0  0
   -7.6698   -7.3197   24.6104 H   0  0  0  0  0  0  0  0  0  0  0  0
   -6.3988  -11.6234   22.0568 H   0  0  0  0  0  0  0  0  0  0  0  0
   -7.0866  -13.7780   21.0818 H   0  0  0  0  0  0  0  0  0  0  0  0
   -7.8561  -16.0861   21.6006 H   0  0  0  0  0  0  0  0  0  0  0  0
   -9.3813  -17.5282   23.2591 H   0  0  0  0  0  0  0  0  0  0  0  0
  -10.7155  -16.8557   25.5898 H   0  0  0  0  0  0  0  0  0  0  0  0
   -8.7777  -12.3653   24.7820 H   0  0  0  0  0  0  0  0  0  0  0  0
  1  2  2  0
  2  3  1  0
  3  4  1  0
  4  5  1  0
  5  6  1  0
  6  7  1  0
  7  8  1  0
  8  9  1  0
  9 10  1  0
 10 11  1  0
 11 12  1  0
 11 13  1  0
  2 14  1  0
 14 15  1  0
 15 16  1  0
 16 17  2  0
 17 18  1  0
 18 19  1  0
 19 20  2  0
 20 21  1  0
 21 22  2  0
 22 23  1  0
  9  5  1  0
 23 15  2  0
 22 18  1  0
  3 24  1  0
  4 25  1  0
  4 26  1  0
  5 27  1  0
  6 28  1  0
  6 29  1  0
  7 30  1  0
  7 31  1  0
  8 32  1  0
  8 33  1  0
 10 34  1  0
 10 35  1  0
 11 36  1  0
 14 37  1  0
 16 38  1  0
 17 39  1  0
 19 40  1  0
 20 41  1  0
 23 42  1  0
M  END
>  <Energy>  (339) 
58.759059728859938

>  <compound_id>  (339) 
37726

>  <target_id>  (339) 
1

>  <reference_id>  (339) 
53

>  <inspiration_ids>  (339) 
[53, 45]

>  <energy_score>  (339) 
3.1179652536934555

>  <distance_score>  (339) 
13.99378252375648

>  <path>  (339) 
/opt/xchem-fragalysis-2/maxwin/BulkDock/SCRATCH/511016/C37726-P53/C37726-P53.minimised.mol

>  <scratch_subdir>  (339) 
/opt/xchem-fragalysis-2/maxwin/BulkDock/SCRATCH/511016/C37726-P53

>  <fragmenstein_runtime>  (339) 
17.91671633720398

>  <fragmenstein_outcome>  (339) 
too moved

>  <fragmenstein_mode>  (339) 
expansion

>  <fragmenstein_error>  (339) 


$$$$
C37726-P45
     RDKit          3D

 42 44  0  0  0  0  0  0  0  0999 V2000
    5.7885  -16.5756   27.0459 O   0  0  0  0  0  0  0  0  0  0  0  0
    5.5114  -16.2561   28.1466 C   0  0  0  0  0  0  0  0  0  0  0  0
    5.9806  -15.0449   28.9734 N   0  0  0  0  0  0  0  0  0  0  0  0
    6.9050  -13.9269   28.6217 C   0  0  0  0  0  0  0  0  0  0  0  0
    6.3187  -12.4404   28.5930 C   0  0  0  0  0  0  0  0  0  0  0  0
    7.1552  -11.4072   27.8115 C   0  0  0  0  0  0  0  0  0  0  0  0
    6.6549  -10.0263   28.2431 C   0  0  0  0  0  0  0  0  0  0  0  0
    5.7530  -10.2832   29.4391 C   0  0  0  0  0  0  0  0  0  0  0  0
    5.9313  -11.6988   29.8208 N   0  0  0  0  0  0  0  0  0  0  0  0
    6.8048  -11.8885   30.9955 C   0  0  0  0  0  0  0  0  0  0  0  0
    8.2570  -11.3872   30.9883 C   0  0  0  0  0  0  0  0  0  0  0  0
    8.7835  -11.5413   32.2324 F   0  0  0  0  0  0  0  0  0  0  0  0
    9.0176  -12.1446   30.1604 F   0  0  0  0  0  0  0  0  0  0  0  0
    4.5374  -16.9066   29.1506 N   0  0  0  0  0  0  0  0  0  0  0  0
    3.6557  -17.9871   29.0003 C   0  0  0  0  0  0  0  0  0  0  0  0
    3.7312  -18.9037   27.8502 C   0  0  0  0  0  0  0  0  0  0  0  0
    2.9294  -19.9901   27.7802 C   0  0  0  0  0  0  0  0  0  0  0  0
    1.9748  -20.2079   28.7701 N   0  0  0  0  0  0  0  0  0  0  0  0
    1.0640  -21.2204   28.9275 C   0  0  0  0  0  0  0  0  0  0  0  0
    0.2715  -20.8385   29.9823 C   0  0  0  0  0  0  0  0  0  0  0  0
    0.7459  -19.6889   30.5628 N   0  0  0  0  0  0  0  0  0  0  0  0
    1.7842  -19.3323   29.8286 C   0  0  0  0  0  0  0  0  0  0  0  0
    2.6969  -18.2283   29.9372 C   0  0  0  0  0  0  0  0  0  0  0  0
    5.4899  -15.0266   29.8456 H   0  0  0  0  0  0  0  0  0  0  0  0
    7.7434  -13.9923   29.3195 H   0  0  0  0  0  0  0  0  0  0  0  0
    7.2905  -14.1604   27.6228 H   0  0  0  0  0  0  0  0  0  0  0  0
    5.3937  -12.5732   28.0438 H   0  0  0  0  0  0  0  0  0  0  0  0
    8.2203  -11.5060   28.0443 H   0  0  0  0  0  0  0  0  0  0  0  0
    7.0483  -11.5444   26.7303 H   0  0  0  0  0  0  0  0  0  0  0  0
    7.5025   -9.3860   28.5094 H   0  0  0  0  0  0  0  0  0  0  0  0
    6.1032   -9.5337   27.4367 H   0  0  0  0  0  0  0  0  0  0  0  0
    5.9429   -9.5836   30.2605 H   0  0  0  0  0  0  0  0  0  0  0  0
    4.7071  -10.1379   29.1440 H   0  0  0  0  0  0  0  0  0  0  0  0
    6.3031  -11.4159   31.8504 H   0  0  0  0  0  0  0  0  0  0  0  0
    6.8131  -12.9553   31.2503 H   0  0  0  0  0  0  0  0  0  0  0  0
    8.3493  -10.3361   30.7052 H   0  0  0  0  0  0  0  0  0  0  0  0
    4.5973  -16.4289   30.0311 H   0  0  0  0  0  0  0  0  0  0  0  0
    4.4739  -18.7151   27.0813 H   0  0  0  0  0  0  0  0  0  0  0  0
    2.9807  -20.7097   26.9733 H   0  0  0  0  0  0  0  0  0  0  0  0
    1.0097  -22.0707   28.2627 H   0  0  0  0  0  0  0  0  0  0  0  0
   -0.6077  -21.3375   30.3575 H   0  0  0  0  0  0  0  0  0  0  0  0
    2.5780  -17.5888   30.8038 H   0  0  0  0  0  0  0  0  0  0  0  0
  1  2  2  0
  2  3  1  0
  3  4  1  0
  4  5  1  0
  5  6  1  0
  6  7  1  0
  7  8  1  0
  8  9  1  0
  9 10  1  0
 10 11  1  0
 11 12  1  0
 11 13  1  0
  2 14  1  0
 14 15  1  0
 15 16  1  0
 16 17  2  0
 17 18  1  0
 18 19  1  0
 19 20  2  0
 20 21  1  0
 21 22  2  0
 22 23  1  0
  9  5  1  0
 23 15  2  0
 22 18  1  0
  3 24  1  0
  4 25  1  0
  4 26  1  0
  5 27  1  0
  6 28  1  0
  6 29  1  0
  7 30  1  0
  7 31  1  0
  8 32  1  0
  8 33  1  0
 10 34  1  0
 10 35  1  0
 11 36  1  0
 14 37  1  0
 16 38  1  0
 17 39  1  0
 19 40  1  0
 20 41  1  0
 23 42  1  0
M  END
>  <Energy>  (340) 
47.017847831082626

>  <compound_id>  (340) 
37726

>  <target_id>  (340) 
1

>  <reference_id>  (340) 
45

>  <inspiration_ids>  (340) 
[53, 45]

>  <energy_score>  (340) 
-8.623246644084475

>  <distance_score>  (340) 
14.635972727561242

>  <path>  (340) 
/opt/xchem-fragalysis-2/maxwin/BulkDock/SCRATCH/511016/C37726-P45/C37726-P45.minimised.mol

>  <scratch_subdir>  (340) 
/opt/xchem-fragalysis-2/maxwin/BulkDock/SCRATCH/511016/C37726-P45

>  <fragmenstein_runtime>  (340) 
14.676944494247437

>  <fragmenstein_outcome>  (340) 
too moved

>  <fragmenstein_mode>  (340) 
expansion

>  <fragmenstein_error>  (340) 


$$$$
C37734-P53
     RDKit          3D

 49 51  0  0  0  0  0  0  0  0999 V2000
   -7.9209   -5.1226   26.3638 C   0  0  0  0  0  0  0  0  0  0  0  0
   -6.9207   -6.5919   25.8506 C   0  0  0  0  0  0  0  0  0  0  0  0
   -6.5917   -5.8009   24.3481 C   0  0  0  0  0  0  0  0  0  0  0  0
   -7.2579   -8.6237   26.2979 O   0  0  0  0  0  0  0  0  0  0  0  0
   -7.2490  -10.6236   25.7880 C   0  0  0  0  0  0  0  0  0  0  0  0
   -7.2962  -12.6313   26.6827 C   0  0  0  0  0  0  0  0  0  0  0  0
   -6.4245  -12.7942   27.4882 O   0  0  0  0  0  0  0  0  0  0  0  0
   -8.5432  -14.0543   26.5273 N   0  0  0  0  0  0  0  0  0  0  0  0
   -9.6732  -13.8546   27.4357 C   0  0  0  0  0  0  0  0  0  0  0  0
  -10.9223  -14.7825   27.2349 C   0  0  0  0  0  0  0  0  0  0  0  0
  -10.2206  -16.0239   26.7769 C   0  0  0  0  0  0  0  0  0  0  0  0
   -8.6375  -15.8034   27.3166 C   0  0  0  0  0  0  0  0  0  0  0  0
   -8.3814  -17.7125   28.0131 C   0  0  0  0  0  0  0  0  0  0  0  0
   -9.0043  -19.4775   28.3247 N   0  0  0  0  0  0  0  0  0  0  0  0
   -8.2468  -21.1204   27.9324 C   0  0  0  0  0  0  0  0  0  0  0  0
   -7.1789  -21.3964   27.4960 O   0  0  0  0  0  0  0  0  0  0  0  0
   -9.7179  -22.3186   28.2984 C   0  0  0  0  0  0  0  0  0  0  0  0
   -9.6463  -23.6037   27.5355 C   0  0  0  0  0  0  0  0  0  0  0  0
  -10.7167  -23.9843   26.8252 C   0  0  0  0  0  0  0  0  0  0  0  0
  -11.9420  -23.3800   27.0942 N   0  0  0  0  0  0  0  0  0  0  0  0
  -13.1922  -23.6347   26.5977 C   0  0  0  0  0  0  0  0  0  0  0  0
  -14.0463  -22.8485   27.3330 C   0  0  0  0  0  0  0  0  0  0  0  0
  -13.3715  -22.1177   28.2711 N   0  0  0  0  0  0  0  0  0  0  0  0
  -12.1085  -22.4412   28.1033 C   0  0  0  0  0  0  0  0  0  0  0  0
  -10.9414  -21.9459   28.7471 C   0  0  0  0  0  0  0  0  0  0  0  0
   -8.2948   -4.5580   25.5029 H   0  0  0  0  0  0  0  0  0  0  0  0
   -7.2426   -4.3783   26.8263 H   0  0  0  0  0  0  0  0  0  0  0  0
   -8.7366   -5.2298   27.0702 H   0  0  0  0  0  0  0  0  0  0  0  0
   -6.4204   -5.9349   26.6644 H   0  0  0  0  0  0  0  0  0  0  0  0
   -6.5028   -4.7202   24.5208 H   0  0  0  0  0  0  0  0  0  0  0  0
   -7.3896   -5.8291   23.6082 H   0  0  0  0  0  0  0  0  0  0  0  0
   -5.6631   -6.0513   23.8304 H   0  0  0  0  0  0  0  0  0  0  0  0
   -6.8135  -10.6946   24.8139 H   0  0  0  0  0  0  0  0  0  0  0  0
   -8.3162  -10.7266   25.7019 H   0  0  0  0  0  0  0  0  0  0  0  0
  -10.1283  -12.9475   27.0853 H   0  0  0  0  0  0  0  0  0  0  0  0
   -9.2127  -13.7460   28.3950 H   0  0  0  0  0  0  0  0  0  0  0  0
  -11.6999  -14.4556   26.5363 H   0  0  0  0  0  0  0  0  0  0  0  0
  -11.5416  -14.8287   28.1313 H   0  0  0  0  0  0  0  0  0  0  0  0
  -10.1349  -16.2573   25.7237 H   0  0  0  0  0  0  0  0  0  0  0  0
  -10.8343  -16.8501   27.0918 H   0  0  0  0  0  0  0  0  0  0  0  0
   -8.1887  -16.0362   26.3776 H   0  0  0  0  0  0  0  0  0  0  0  0
   -9.1740  -17.7905   27.2942 H   0  0  0  0  0  0  0  0  0  0  0  0
   -8.8311  -17.5705   28.9032 H   0  0  0  0  0  0  0  0  0  0  0  0
   -9.8890  -19.5990   28.5749 H   0  0  0  0  0  0  0  0  0  0  0  0
   -8.6900  -24.0178   27.3165 H   0  0  0  0  0  0  0  0  0  0  0  0
  -10.6667  -24.8270   26.1591 H   0  0  0  0  0  0  0  0  0  0  0  0
  -13.3833  -24.3618   25.8271 H   0  0  0  0  0  0  0  0  0  0  0  0
  -15.1228  -22.7850   27.2429 H   0  0  0  0  0  0  0  0  0  0  0  0
  -11.1178  -21.1442   29.4348 H   0  0  0  0  0  0  0  0  0  0  0  0
  1  2  1  0
  2  3  1  0
  2  4  1  0
  4  5  1  0
  5  6  1  0
  6  7  2  0
  6  8  1  0
  8  9  1  0
  9 10  1  0
 10 11  1  0
 11 12  1  0
 12 13  1  0
 13 14  1  0
 14 15  1  0
 15 16  2  0
 15 17  1  0
 17 18  1  0
 18 19  2  0
 19 20  1  0
 20 21  1  0
 21 22  2  0
 22 23  1  0
 23 24  2  0
 24 25  1  0
 12  8  1  0
 25 17  2  0
 24 20  1  0
  1 26  1  0
  1 27  1  0
  1 28  1  0
  2 29  1  0
  3 30  1  0
  3 31  1  0
  3 32  1  0
  5 33  1  0
  5 34  1  0
  9 35  1  0
  9 36  1  0
 10 37  1  0
 10 38  1  0
 11 39  1  0
 11 40  1  0
 12 41  1  0
 13 42  1  0
 13 43  1  0
 14 44  1  0
 18 45  1  0
 19 46  1  0
 21 47  1  0
 22 48  1  0
 25 49  1  0
M  END
>  <Energy>  (341) 
1251.2584748105337

>  <compound_id>  (341) 
37734

>  <target_id>  (341) 
1

>  <reference_id>  (341) 
53

>  <inspiration_ids>  (341) 
[53, 45]

>  <energy_score>  (341) 
1138.2582644831562

>  <distance_score>  (341) 
10.345391518214972

>  <path>  (341) 
/opt/xchem-fragalysis-2/maxwin/BulkDock/SCRATCH/511016/C37734-P53/C37734-P53.minimised.mol

>  <scratch_subdir>  (341) 
/opt/xchem-fragalysis-2/maxwin/BulkDock/SCRATCH/511016/C37734-P53

>  <fragmenstein_runtime>  (341) 
23.67615294456482

>  <fragmenstein_outcome>  (341) 
too moved

>  <fragmenstein_mode>  (341) 
expansion

>  <fragmenstein_error>  (341) 


$$$$
C37734-P45
     RDKit          3D

 49 51  0  0  0  0  0  0  0  0999 V2000
   -5.5005   -3.3276   27.7338 C   0  0  0  0  0  0  0  0  0  0  0  0
   -6.8188   -3.8940   28.0111 C   0  0  0  0  0  0  0  0  0  0  0  0
   -7.8019   -3.3964   26.9562 C   0  0  0  0  0  0  0  0  0  0  0  0
   -6.6284   -5.3433   27.8578 O   0  0  0  0  0  0  0  0  0  0  0  0
   -6.2952   -6.5253   29.1478 C   0  0  0  0  0  0  0  0  0  0  0  0
   -5.4696   -8.2542   28.7076 C   0  0  0  0  0  0  0  0  0  0  0  0
   -4.3195   -8.0786   28.6228 O   0  0  0  0  0  0  0  0  0  0  0  0
   -6.4983   -9.9154   28.4870 N   0  0  0  0  0  0  0  0  0  0  0  0
   -7.0305  -10.0176   26.6247 C   0  0  0  0  0  0  0  0  0  0  0  0
   -6.9695  -11.2804   25.8370 C   0  0  0  0  0  0  0  0  0  0  0  0
   -6.6677  -12.5119   26.6954 C   0  0  0  0  0  0  0  0  0  0  0  0
   -5.9017  -12.1548   28.1846 C   0  0  0  0  0  0  0  0  0  0  0  0
   -6.5201  -14.3527   28.5115 C   0  0  0  0  0  0  0  0  0  0  0  0
   -7.0118  -16.4814   28.1668 N   0  0  0  0  0  0  0  0  0  0  0  0
   -5.8599  -18.1177   27.6979 C   0  0  0  0  0  0  0  0  0  0  0  0
   -4.6536  -18.0240   27.6630 O   0  0  0  0  0  0  0  0  0  0  0  0
   -6.4073  -20.0651   27.0262 C   0  0  0  0  0  0  0  0  0  0  0  0
   -5.3443  -21.4782   26.9789 C   0  0  0  0  0  0  0  0  0  0  0  0
   -5.3935  -22.7937   27.3627 C   0  0  0  0  0  0  0  0  0  0  0  0
   -6.5493  -23.3756   27.6395 N   0  0  0  0  0  0  0  0  0  0  0  0
   -6.9256  -24.6830   27.6377 C   0  0  0  0  0  0  0  0  0  0  0  0
   -8.2590  -24.6498   27.9448 C   0  0  0  0  0  0  0  0  0  0  0  0
   -8.6667  -23.3499   28.0683 N   0  0  0  0  0  0  0  0  0  0  0  0
   -7.6137  -22.6018   27.7534 C   0  0  0  0  0  0  0  0  0  0  0  0
   -7.4631  -21.1316   27.5573 C   0  0  0  0  0  0  0  0  0  0  0  0
   -5.2359   -3.4115   26.6905 H   0  0  0  0  0  0  0  0  0  0  0  0
   -5.0569   -2.4121   27.9847 H   0  0  0  0  0  0  0  0  0  0  0  0
   -4.9522   -3.7813   28.4997 H   0  0  0  0  0  0  0  0  0  0  0  0
   -7.1564   -3.5843   29.0008 H   0  0  0  0  0  0  0  0  0  0  0  0
   -7.4423   -3.6014   25.9413 H   0  0  0  0  0  0  0  0  0  0  0  0
   -7.9980   -2.3252   27.0542 H   0  0  0  0  0  0  0  0  0  0  0  0
   -8.7575   -3.9227   27.0464 H   0  0  0  0  0  0  0  0  0  0  0  0
   -5.6524   -5.7133   29.3865 H   0  0  0  0  0  0  0  0  0  0  0  0
   -6.5172   -6.3371   30.2369 H   0  0  0  0  0  0  0  0  0  0  0  0
   -8.0502   -9.7820   26.9439 H   0  0  0  0  0  0  0  0  0  0  0  0
   -7.2293   -8.9939   26.4271 H   0  0  0  0  0  0  0  0  0  0  0  0
   -8.0465  -11.2856   25.7569 H   0  0  0  0  0  0  0  0  0  0  0  0
   -6.5022  -11.2837   24.8621 H   0  0  0  0  0  0  0  0  0  0  0  0
   -7.6230  -12.8779   27.0713 H   0  0  0  0  0  0  0  0  0  0  0  0
   -6.5039  -13.4469   26.2270 H   0  0  0  0  0  0  0  0  0  0  0  0
   -4.8459  -12.1103   27.8365 H   0  0  0  0  0  0  0  0  0  0  0  0
   -7.5864  -14.1034   28.3951 H   0  0  0  0  0  0  0  0  0  0  0  0
   -6.2070  -14.3837   29.5820 H   0  0  0  0  0  0  0  0  0  0  0  0
   -7.9848  -16.7175   28.0669 H   0  0  0  0  0  0  0  0  0  0  0  0
   -4.7128  -21.1397   26.1479 H   0  0  0  0  0  0  0  0  0  0  0  0
   -4.6328  -23.5504   27.2840 H   0  0  0  0  0  0  0  0  0  0  0  0
   -6.2441  -25.4874   27.3984 H   0  0  0  0  0  0  0  0  0  0  0  0
   -8.9464  -25.4772   28.0617 H   0  0  0  0  0  0  0  0  0  0  0  0
   -8.4841  -20.9155   27.7517 H   0  0  0  0  0  0  0  0  0  0  0  0
  1  2  1  0
  2  3  1  0
  2  4  1  0
  4  5  1  0
  5  6  1  0
  6  7  2  0
  6  8  1  0
  8  9  1  0
  9 10  1  0
 10 11  1  0
 11 12  1  0
 12 13  1  0
 13 14  1  0
 14 15  1  0
 15 16  2  0
 15 17  1  0
 17 18  1  0
 18 19  2  0
 19 20  1  0
 20 21  1  0
 21 22  2  0
 22 23  1  0
 23 24  2  0
 24 25  1  0
 12  8  1  0
 25 17  2  0
 24 20  1  0
  1 26  1  0
  1 27  1  0
  1 28  1  0
  2 29  1  0
  3 30  1  0
  3 31  1  0
  3 32  1  0
  5 33  1  0
  5 34  1  0
  9 35  1  0
  9 36  1  0
 10 37  1  0
 10 38  1  0
 11 39  1  0
 11 40  1  0
 12 41  1  0
 13 42  1  0
 13 43  1  0
 14 44  1  0
 18 45  1  0
 19 46  1  0
 21 47  1  0
 22 48  1  0
 25 49  1  0
M  END
>  <Energy>  (342) 
1700.6691461851735

>  <compound_id>  (342) 
37734

>  <target_id>  (342) 
1

>  <reference_id>  (342) 
45

>  <inspiration_ids>  (342) 
[53, 45]

>  <energy_score>  (342) 
1587.6689358578253

>  <distance_score>  (342) 
8.417480641558326

>  <path>  (342) 
/opt/xchem-fragalysis-2/maxwin/BulkDock/SCRATCH/511016/C37734-P45/C37734-P45.minimised.mol

>  <scratch_subdir>  (342) 
/opt/xchem-fragalysis-2/maxwin/BulkDock/SCRATCH/511016/C37734-P45

>  <fragmenstein_runtime>  (342) 
28.53188157081604

>  <fragmenstein_outcome>  (342) 
too moved

>  <fragmenstein_mode>  (342) 
expansion

>  <fragmenstein_error>  (342) 


$$$$
C37735-P53
     RDKit          3D

 46 48  0  0  0  0  0  0  0  0999 V2000
   -5.7022   -4.3969   29.4267 C   0  0  0  0  0  0  0  0  0  0  0  0
   -6.2338   -5.7696   28.4501 C   0  0  0  0  0  0  0  0  0  0  0  0
   -7.8042   -4.9248   27.6365 C   0  0  0  0  0  0  0  0  0  0  0  0
   -5.6124   -7.6629   28.4615 O   0  0  0  0  0  0  0  0  0  0  0  0
   -6.7095   -9.0537   27.4730 C   0  0  0  0  0  0  0  0  0  0  0  0
   -7.4665  -10.3302   25.8744 C   0  0  0  0  0  0  0  0  0  0  0  0
   -6.9683  -10.4802   24.8014 O   0  0  0  0  0  0  0  0  0  0  0  0
   -9.1161  -11.0953   26.1996 N   0  0  0  0  0  0  0  0  0  0  0  0
  -10.0921  -11.8169   25.3091 C   0  0  0  0  0  0  0  0  0  0  0  0
  -11.5494  -12.3031   26.2110 C   0  0  0  0  0  0  0  0  0  0  0  0
  -11.0517  -13.4287   27.1514 C   0  0  0  0  0  0  0  0  0  0  0  0
  -11.5193  -14.8414   26.8311 N   0  0  0  0  0  0  0  0  0  0  0  0
  -12.8412  -15.4204   26.8186 C   0  0  0  0  0  0  0  0  0  0  0  0
  -13.9152  -14.9178   26.9807 O   0  0  0  0  0  0  0  0  0  0  0  0
  -12.8285  -16.9213   26.4836 C   0  0  0  0  0  0  0  0  0  0  0  0
  -13.5642  -17.8712   27.3388 C   0  0  0  0  0  0  0  0  0  0  0  0
  -13.6498  -19.1739   26.9947 C   0  0  0  0  0  0  0  0  0  0  0  0
  -13.0351  -19.6113   25.8249 N   0  0  0  0  0  0  0  0  0  0  0  0
  -12.9621  -20.8640   25.2722 C   0  0  0  0  0  0  0  0  0  0  0  0
  -12.2806  -20.6997   24.0868 C   0  0  0  0  0  0  0  0  0  0  0  0
  -11.9092  -19.3903   23.9087 N   0  0  0  0  0  0  0  0  0  0  0  0
  -12.3731  -18.7512   24.9605 C   0  0  0  0  0  0  0  0  0  0  0  0
  -12.2970  -17.3700   25.3227 C   0  0  0  0  0  0  0  0  0  0  0  0
   -9.2716  -12.9522   26.9556 C   0  0  0  0  0  0  0  0  0  0  0  0
   -5.7904   -4.5635   30.5042 H   0  0  0  0  0  0  0  0  0  0  0  0
   -6.4510   -3.6455   29.2058 H   0  0  0  0  0  0  0  0  0  0  0  0
   -4.8027   -3.8472   29.1604 H   0  0  0  0  0  0  0  0  0  0  0  0
   -5.8203   -5.6728   27.4857 H   0  0  0  0  0  0  0  0  0  0  0  0
   -8.1020   -5.3299   26.6816 H   0  0  0  0  0  0  0  0  0  0  0  0
   -7.7533   -3.8275   27.7040 H   0  0  0  0  0  0  0  0  0  0  0  0
   -8.8374   -5.0830   27.9278 H   0  0  0  0  0  0  0  0  0  0  0  0
   -7.0541   -9.3452   28.4719 H   0  0  0  0  0  0  0  0  0  0  0  0
   -5.7551   -8.9075   27.1377 H   0  0  0  0  0  0  0  0  0  0  0  0
  -10.2091  -11.4908   24.2576 H   0  0  0  0  0  0  0  0  0  0  0  0
  -10.7040  -10.8859   25.2730 H   0  0  0  0  0  0  0  0  0  0  0  0
  -12.4032  -12.5616   25.5769 H   0  0  0  0  0  0  0  0  0  0  0  0
  -11.9211  -11.4422   26.7813 H   0  0  0  0  0  0  0  0  0  0  0  0
  -11.4895  -13.4353   28.1301 H   0  0  0  0  0  0  0  0  0  0  0  0
  -10.8335  -15.5816   26.7395 H   0  0  0  0  0  0  0  0  0  0  0  0
  -14.0512  -17.4861   28.2299 H   0  0  0  0  0  0  0  0  0  0  0  0
  -14.1741  -19.9133   27.5860 H   0  0  0  0  0  0  0  0  0  0  0  0
  -13.3873  -21.7329   25.7512 H   0  0  0  0  0  0  0  0  0  0  0  0
  -12.0179  -21.4568   23.3571 H   0  0  0  0  0  0  0  0  0  0  0  0
  -11.8522  -16.7093   24.5952 H   0  0  0  0  0  0  0  0  0  0  0  0
   -8.7650  -13.2630   27.8785 H   0  0  0  0  0  0  0  0  0  0  0  0
   -8.6904  -13.8640   26.5803 H   0  0  0  0  0  0  0  0  0  0  0  0
  1  2  1  0
  2  3  1  0
  2  4  1  0
  4  5  1  0
  5  6  1  0
  6  7  2  0
  6  8  1  0
  8  9  1  0
  9 10  1  0
 10 11  1  0
 11 12  1  0
 12 13  1  0
 13 14  2  0
 13 15  1  0
 15 16  1  0
 16 17  2  0
 17 18  1  0
 18 19  1  0
 19 20  2  0
 20 21  1  0
 21 22  2  0
 22 23  1  0
 11 24  1  0
 24  8  1  0
 23 15  2  0
 22 18  1  0
  1 25  1  0
  1 26  1  0
  1 27  1  0
  2 28  1  0
  3 29  1  0
  3 30  1  0
  3 31  1  0
  5 32  1  0
  5 33  1  0
  9 34  1  0
  9 35  1  0
 10 36  1  0
 10 37  1  0
 11 38  1  0
 12 39  1  0
 16 40  1  0
 17 41  1  0
 19 42  1  0
 20 43  1  0
 23 44  1  0
 24 45  1  0
 24 46  1  0
M  END
>  <Energy>  (343) 
843.86142098126436

>  <compound_id>  (343) 
37735

>  <target_id>  (343) 
1

>  <reference_id>  (343) 
53

>  <inspiration_ids>  (343) 
[53, 45]

>  <energy_score>  (343) 
746.3266270213783

>  <distance_score>  (343) 
11.509193080605456

>  <path>  (343) 
/opt/xchem-fragalysis-2/maxwin/BulkDock/SCRATCH/511016/C37735-P53/C37735-P53.minimised.mol

>  <scratch_subdir>  (343) 
/opt/xchem-fragalysis-2/maxwin/BulkDock/SCRATCH/511016/C37735-P53

>  <fragmenstein_runtime>  (343) 
29.443942070007324

>  <fragmenstein_outcome>  (343) 
too moved

>  <fragmenstein_mode>  (343) 
expansion

>  <fragmenstein_error>  (343) 


$$$$
C37735-P45
     RDKit          3D

 46 48  0  0  0  0  0  0  0  0999 V2000
   -5.9210   -4.3517   30.0484 C   0  0  0  0  0  0  0  0  0  0  0  0
   -6.0434   -5.2902   28.5833 C   0  0  0  0  0  0  0  0  0  0  0  0
   -5.2470   -3.6154   28.3640 C   0  0  0  0  0  0  0  0  0  0  0  0
   -5.7763   -7.1185   29.0462 O   0  0  0  0  0  0  0  0  0  0  0  0
   -6.5839   -8.9006   28.8007 C   0  0  0  0  0  0  0  0  0  0  0  0
   -6.1472   -9.2160   27.3765 C   0  0  0  0  0  0  0  0  0  0  0  0
   -5.2641   -8.4308   27.0541 O   0  0  0  0  0  0  0  0  0  0  0  0
   -6.9189  -10.5141   26.2282 N   0  0  0  0  0  0  0  0  0  0  0  0
   -6.7339  -10.7536   24.8552 C   0  0  0  0  0  0  0  0  0  0  0  0
   -6.2525  -11.8869   23.8200 C   0  0  0  0  0  0  0  0  0  0  0  0
   -5.2437  -12.8600   24.3925 C   0  0  0  0  0  0  0  0  0  0  0  0
   -4.5132  -14.6438   23.7630 N   0  0  0  0  0  0  0  0  0  0  0  0
   -3.0275  -15.4664   24.1318 C   0  0  0  0  0  0  0  0  0  0  0  0
   -2.1356  -15.1756   24.9296 O   0  0  0  0  0  0  0  0  0  0  0  0
   -2.6864  -16.7786   23.1905 C   0  0  0  0  0  0  0  0  0  0  0  0
   -2.3613  -16.6355   21.7419 C   0  0  0  0  0  0  0  0  0  0  0  0
   -2.7386  -17.6015   20.8835 C   0  0  0  0  0  0  0  0  0  0  0  0
   -3.3344  -18.7200   21.4311 N   0  0  0  0  0  0  0  0  0  0  0  0
   -4.2559  -19.5656   20.8859 C   0  0  0  0  0  0  0  0  0  0  0  0
   -4.8914  -20.1074   21.9749 C   0  0  0  0  0  0  0  0  0  0  0  0
   -4.2272  -19.7899   23.1400 N   0  0  0  0  0  0  0  0  0  0  0  0
   -3.2346  -18.9991   22.7840 C   0  0  0  0  0  0  0  0  0  0  0  0
   -2.4414  -18.0653   23.5852 C   0  0  0  0  0  0  0  0  0  0  0  0
   -6.2613  -12.2526   26.0629 C   0  0  0  0  0  0  0  0  0  0  0  0
   -6.7478   -3.6252   30.1454 H   0  0  0  0  0  0  0  0  0  0  0  0
   -5.0451   -3.8572   30.5010 H   0  0  0  0  0  0  0  0  0  0  0  0
   -5.9991   -5.2253   30.6264 H   0  0  0  0  0  0  0  0  0  0  0  0
   -6.9901   -5.2866   28.0201 H   0  0  0  0  0  0  0  0  0  0  0  0
   -4.3656   -3.3950   28.9769 H   0  0  0  0  0  0  0  0  0  0  0  0
   -4.9006   -3.2315   27.3985 H   0  0  0  0  0  0  0  0  0  0  0  0
   -6.1275   -2.9778   28.4209 H   0  0  0  0  0  0  0  0  0  0  0  0
   -7.6615   -9.0658   28.8517 H   0  0  0  0  0  0  0  0  0  0  0  0
   -6.2504   -9.3899   29.6903 H   0  0  0  0  0  0  0  0  0  0  0  0
   -7.7012  -11.0064   25.2315 H   0  0  0  0  0  0  0  0  0  0  0  0
   -7.2430  -10.2470   24.0710 H   0  0  0  0  0  0  0  0  0  0  0  0
   -7.0528  -12.1883   23.1190 H   0  0  0  0  0  0  0  0  0  0  0  0
   -5.9126  -11.5261   22.9274 H   0  0  0  0  0  0  0  0  0  0  0  0
   -5.8499  -13.4165   23.6967 H   0  0  0  0  0  0  0  0  0  0  0  0
   -5.0436  -15.1816   23.1378 H   0  0  0  0  0  0  0  0  0  0  0  0
   -1.8103  -15.7656   21.3967 H   0  0  0  0  0  0  0  0  0  0  0  0
   -2.6448  -17.5391   19.8074 H   0  0  0  0  0  0  0  0  0  0  0  0
   -4.4779  -19.5913   19.8293 H   0  0  0  0  0  0  0  0  0  0  0  0
   -5.7687  -20.7425   21.9800 H   0  0  0  0  0  0  0  0  0  0  0  0
   -2.2934  -18.3404   24.6240 H   0  0  0  0  0  0  0  0  0  0  0  0
   -6.9434  -13.0161   26.4355 H   0  0  0  0  0  0  0  0  0  0  0  0
   -5.7007  -12.2346   27.0203 H   0  0  0  0  0  0  0  0  0  0  0  0
  1  2  1  0
  2  3  1  0
  2  4  1  0
  4  5  1  0
  5  6  1  0
  6  7  2  0
  6  8  1  0
  8  9  1  0
  9 10  1  0
 10 11  1  0
 11 12  1  0
 12 13  1  0
 13 14  2  0
 13 15  1  0
 15 16  1  0
 16 17  2  0
 17 18  1  0
 18 19  1  0
 19 20  2  0
 20 21  1  0
 21 22  2  0
 22 23  1  0
 11 24  1  0
 24  8  1  0
 23 15  2  0
 22 18  1  0
  1 25  1  0
  1 26  1  0
  1 27  1  0
  2 28  1  0
  3 29  1  0
  3 30  1  0
  3 31  1  0
  5 32  1  0
  5 33  1  0
  9 34  1  0
  9 35  1  0
 10 36  1  0
 10 37  1  0
 11 38  1  0
 12 39  1  0
 16 40  1  0
 17 41  1  0
 19 42  1  0
 20 43  1  0
 23 44  1  0
 24 45  1  0
 24 46  1  0
M  END
>  <Energy>  (344) 
1050.8735742497379

>  <compound_id>  (344) 
37735

>  <target_id>  (344) 
1

>  <reference_id>  (344) 
45

>  <inspiration_ids>  (344) 
[53, 45]

>  <energy_score>  (344) 
953.3387802898387

>  <distance_score>  (344) 
11.373909651835355

>  <path>  (344) 
/opt/xchem-fragalysis-2/maxwin/BulkDock/SCRATCH/511016/C37735-P45/C37735-P45.minimised.mol

>  <scratch_subdir>  (344) 
/opt/xchem-fragalysis-2/maxwin/BulkDock/SCRATCH/511016/C37735-P45

>  <fragmenstein_runtime>  (344) 
22.217963218688965

>  <fragmenstein_outcome>  (344) 
too moved

>  <fragmenstein_mode>  (344) 
expansion

>  <fragmenstein_error>  (344) 


$$$$
C37737-P53
     RDKit          3D

 48 50  0  0  0  0  0  0  0  0999 V2000
   -6.5379   -5.9739   31.2959 C   0  0  0  0  0  0  0  0  0  0  0  0
   -6.2132   -6.2933   29.3502 C   0  0  0  0  0  0  0  0  0  0  0  0
   -5.5624   -4.4766   29.6283 C   0  0  0  0  0  0  0  0  0  0  0  0
   -6.9940   -5.2463   27.9683 C   0  0  0  0  0  0  0  0  0  0  0  0
   -5.9853   -8.2977   28.5966 C   0  0  0  0  0  0  0  0  0  0  0  0
   -6.4253  -10.1892   29.2455 C   0  0  0  0  0  0  0  0  0  0  0  0
   -7.1491  -10.1149   30.1369 O   0  0  0  0  0  0  0  0  0  0  0  0
   -5.7474  -12.0007   28.9288 N   0  0  0  0  0  0  0  0  0  0  0  0
   -5.9537  -13.5070   29.8671 C   0  0  0  0  0  0  0  0  0  0  0  0
   -5.8943  -14.9695   29.9539 C   0  0  0  0  0  0  0  0  0  0  0  0
   -6.5804  -15.3382   28.5321 C   0  0  0  0  0  0  0  0  0  0  0  0
   -6.6891  -17.4003   28.2082 N   0  0  0  0  0  0  0  0  0  0  0  0
   -8.1620  -18.5786   28.0530 C   0  0  0  0  0  0  0  0  0  0  0  0
   -9.2738  -18.2001   28.1992 O   0  0  0  0  0  0  0  0  0  0  0  0
   -7.6860  -20.5993   27.4397 C   0  0  0  0  0  0  0  0  0  0  0  0
   -6.8366  -21.8517   28.1967 C   0  0  0  0  0  0  0  0  0  0  0  0
   -5.5133  -22.0654   28.2821 C   0  0  0  0  0  0  0  0  0  0  0  0
   -5.0129  -22.3863   27.0775 N   0  0  0  0  0  0  0  0  0  0  0  0
   -4.2306  -24.0489   27.0226 C   0  0  0  0  0  0  0  0  0  0  0  0
   -4.2650  -24.4440   25.5066 C   0  0  0  0  0  0  0  0  0  0  0  0
   -5.4405  -23.0010   24.8205 N   0  0  0  0  0  0  0  0  0  0  0  0
   -6.0285  -22.5368   26.0883 C   0  0  0  0  0  0  0  0  0  0  0  0
   -7.5430  -22.1554   26.9927 C   0  0  0  0  0  0  0  0  0  0  0  0
   -6.5812  -13.3744   27.7890 C   0  0  0  0  0  0  0  0  0  0  0  0
   -5.8126   -6.2684   32.0738 H   0  0  0  0  0  0  0  0  0  0  0  0
   -7.3465   -6.5040   31.8069 H   0  0  0  0  0  0  0  0  0  0  0  0
   -6.6398   -4.9037   31.5417 H   0  0  0  0  0  0  0  0  0  0  0  0
   -6.3943   -3.8346   29.9641 H   0  0  0  0  0  0  0  0  0  0  0  0
   -5.1942   -3.9205   28.7668 H   0  0  0  0  0  0  0  0  0  0  0  0
   -4.9309   -4.2184   30.4867 H   0  0  0  0  0  0  0  0  0  0  0  0
   -6.2598   -5.6395   27.3004 H   0  0  0  0  0  0  0  0  0  0  0  0
   -8.0140   -5.2901   27.5383 H   0  0  0  0  0  0  0  0  0  0  0  0
   -7.1126   -4.1452   28.2044 H   0  0  0  0  0  0  0  0  0  0  0  0
   -4.9732   -8.0085   28.8160 H   0  0  0  0  0  0  0  0  0  0  0  0
   -5.7706   -8.4342   27.5199 H   0  0  0  0  0  0  0  0  0  0  0  0
   -4.9083  -13.4686   29.9800 H   0  0  0  0  0  0  0  0  0  0  0  0
   -6.3035  -13.2184   30.8880 H   0  0  0  0  0  0  0  0  0  0  0  0
   -5.0052  -15.5841   30.2010 H   0  0  0  0  0  0  0  0  0  0  0  0
   -6.2913  -14.9684   30.9762 H   0  0  0  0  0  0  0  0  0  0  0  0
   -7.7590  -15.2994   28.1103 H   0  0  0  0  0  0  0  0  0  0  0  0
   -5.8229  -17.9375   28.1303 H   0  0  0  0  0  0  0  0  0  0  0  0
   -7.3142  -22.5981   28.8258 H   0  0  0  0  0  0  0  0  0  0  0  0
   -4.9517  -22.6874   28.9392 H   0  0  0  0  0  0  0  0  0  0  0  0
   -3.9049  -24.2161   28.0194 H   0  0  0  0  0  0  0  0  0  0  0  0
   -3.9321  -25.1434   24.7639 H   0  0  0  0  0  0  0  0  0  0  0  0
   -8.2190  -23.0385   27.0130 H   0  0  0  0  0  0  0  0  0  0  0  0
   -7.6571  -13.3421   27.9304 H   0  0  0  0  0  0  0  0  0  0  0  0
   -6.6131  -13.1159   26.7409 H   0  0  0  0  0  0  0  0  0  0  0  0
  1  2  1  0
  2  3  1  0
  2  4  1  0
  2  5  1  0
  5  6  1  0
  6  7  2  0
  6  8  1  0
  8  9  1  0
  9 10  1  0
 10 11  1  0
 11 12  1  0
 12 13  1  0
 13 14  2  0
 13 15  1  0
 15 16  1  0
 16 17  2  0
 17 18  1  0
 18 19  1  0
 19 20  2  0
 20 21  1  0
 21 22  2  0
 22 23  1  0
 11 24  1  0
 24  8  1  0
 23 15  2  0
 22 18  1  0
  1 25  1  0
  1 26  1  0
  1 27  1  0
  3 28  1  0
  3 29  1  0
  3 30  1  0
  4 31  1  0
  4 32  1  0
  4 33  1  0
  5 34  1  0
  5 35  1  0
  9 36  1  0
  9 37  1  0
 10 38  1  0
 10 39  1  0
 11 40  1  0
 12 41  1  0
 16 42  1  0
 17 43  1  0
 19 44  1  0
 20 45  1  0
 23 46  1  0
 24 47  1  0
 24 48  1  0
M  END
>  <Energy>  (345) 
1865.9551395159795

>  <compound_id>  (345) 
37737

>  <target_id>  (345) 
1

>  <reference_id>  (345) 
53

>  <inspiration_ids>  (345) 
[53, 45]

>  <energy_score>  (345) 
1788.6518634993604

>  <distance_score>  (345) 
8.819397404084317

>  <path>  (345) 
/opt/xchem-fragalysis-2/maxwin/BulkDock/SCRATCH/511016/C37737-P53/C37737-P53.minimised.mol

>  <scratch_subdir>  (345) 
/opt/xchem-fragalysis-2/maxwin/BulkDock/SCRATCH/511016/C37737-P53

>  <fragmenstein_runtime>  (345) 
31.936588287353516

>  <fragmenstein_outcome>  (345) 
too moved

>  <fragmenstein_mode>  (345) 
expansion

>  <fragmenstein_error>  (345) 


$$$$
C37737-P45
     RDKit          3D

 48 50  0  0  0  0  0  0  0  0999 V2000
   -1.5491   -5.9535   23.2274 C   0  0  0  0  0  0  0  0  0  0  0  0
   -0.7395   -7.2407   23.4740 C   0  0  0  0  0  0  0  0  0  0  0  0
    0.7452   -6.8469   23.6449 C   0  0  0  0  0  0  0  0  0  0  0  0
   -0.8546   -8.0834   22.1845 C   0  0  0  0  0  0  0  0  0  0  0  0
   -1.1865   -8.0469   24.7895 C   0  0  0  0  0  0  0  0  0  0  0  0
   -2.3351   -9.7321   24.6965 C   0  0  0  0  0  0  0  0  0  0  0  0
   -3.2260   -9.5850   23.8667 O   0  0  0  0  0  0  0  0  0  0  0  0
   -2.2986  -11.3157   25.8701 N   0  0  0  0  0  0  0  0  0  0  0  0
   -3.1847  -12.3022   26.0244 C   0  0  0  0  0  0  0  0  0  0  0  0
   -3.3997  -12.7164   24.7617 C   0  0  0  0  0  0  0  0  0  0  0  0
   -2.1853  -14.2979   25.2539 C   0  0  0  0  0  0  0  0  0  0  0  0
   -2.1675  -15.4434   24.2598 N   0  0  0  0  0  0  0  0  0  0  0  0
   -1.0707  -16.1260   23.6226 C   0  0  0  0  0  0  0  0  0  0  0  0
    0.1007  -15.9131   23.6523 O   0  0  0  0  0  0  0  0  0  0  0  0
   -1.6654  -17.3333   22.9201 C   0  0  0  0  0  0  0  0  0  0  0  0
   -1.9120  -18.5154   23.7339 C   0  0  0  0  0  0  0  0  0  0  0  0
   -2.8457  -19.4017   23.3538 C   0  0  0  0  0  0  0  0  0  0  0  0
   -3.5575  -19.1895   22.1867 N   0  0  0  0  0  0  0  0  0  0  0  0
   -4.6972  -19.7868   21.7182 C   0  0  0  0  0  0  0  0  0  0  0  0
   -4.9879  -19.1502   20.5387 C   0  0  0  0  0  0  0  0  0  0  0  0
   -4.0967  -18.1370   20.2995 N   0  0  0  0  0  0  0  0  0  0  0  0
   -3.2635  -18.1501   21.3166 C   0  0  0  0  0  0  0  0  0  0  0  0
   -2.2587  -17.2097   21.7139 C   0  0  0  0  0  0  0  0  0  0  0  0
   -1.4438  -13.0348   25.5265 C   0  0  0  0  0  0  0  0  0  0  0  0
   -2.5458   -6.1813   22.8410 H   0  0  0  0  0  0  0  0  0  0  0  0
   -1.0690   -5.3081   22.4829 H   0  0  0  0  0  0  0  0  0  0  0  0
   -1.6560   -5.3904   24.1394 H   0  0  0  0  0  0  0  0  0  0  0  0
    1.0417   -6.0318   22.9769 H   0  0  0  0  0  0  0  0  0  0  0  0
    0.9688   -6.5744   24.6761 H   0  0  0  0  0  0  0  0  0  0  0  0
    1.3981   -7.6979   23.4165 H   0  0  0  0  0  0  0  0  0  0  0  0
   -0.5310   -7.5040   21.3113 H   0  0  0  0  0  0  0  0  0  0  0  0
   -0.2269   -8.9800   22.2177 H   0  0  0  0  0  0  0  0  0  0  0  0
   -1.8869   -8.3962   22.0006 H   0  0  0  0  0  0  0  0  0  0  0  0
   -0.3625   -8.1036   25.5187 H   0  0  0  0  0  0  0  0  0  0  0  0
   -1.7260   -7.3551   25.4592 H   0  0  0  0  0  0  0  0  0  0  0  0
   -3.8399  -11.9546   26.8087 H   0  0  0  0  0  0  0  0  0  0  0  0
   -3.2219  -13.0011   26.8509 H   0  0  0  0  0  0  0  0  0  0  0  0
   -3.3430  -11.7995   24.2558 H   0  0  0  0  0  0  0  0  0  0  0  0
   -4.4499  -12.8617   24.3955 H   0  0  0  0  0  0  0  0  0  0  0  0
   -2.2096  -14.9745   26.1407 H   0  0  0  0  0  0  0  0  0  0  0  0
   -3.0221  -15.9506   24.0788 H   0  0  0  0  0  0  0  0  0  0  0  0
   -1.4158  -18.5598   24.6959 H   0  0  0  0  0  0  0  0  0  0  0  0
   -3.1494  -20.2194   23.9728 H   0  0  0  0  0  0  0  0  0  0  0  0
   -5.2189  -20.5721   22.2366 H   0  0  0  0  0  0  0  0  0  0  0  0
   -5.8092  -19.3466   19.8609 H   0  0  0  0  0  0  0  0  0  0  0  0
   -2.1173  -16.3353   21.0898 H   0  0  0  0  0  0  0  0  0  0  0  0
   -0.4147  -13.6006   25.6575 H   0  0  0  0  0  0  0  0  0  0  0  0
   -1.9964  -13.5149   26.2838 H   0  0  0  0  0  0  0  0  0  0  0  0
  1  2  1  0
  2  3  1  0
  2  4  1  0
  2  5  1  0
  5  6  1  0
  6  7  2  0
  6  8  1  0
  8  9  1  0
  9 10  1  0
 10 11  1  0
 11 12  1  0
 12 13  1  0
 13 14  2  0
 13 15  1  0
 15 16  1  0
 16 17  2  0
 17 18  1  0
 18 19  1  0
 19 20  2  0
 20 21  1  0
 21 22  2  0
 22 23  1  0
 11 24  1  0
 24  8  1  0
 23 15  2  0
 22 18  1  0
  1 25  1  0
  1 26  1  0
  1 27  1  0
  3 28  1  0
  3 29  1  0
  3 30  1  0
  4 31  1  0
  4 32  1  0
  4 33  1  0
  5 34  1  0
  5 35  1  0
  9 36  1  0
  9 37  1  0
 10 38  1  0
 10 39  1  0
 11 40  1  0
 12 41  1  0
 16 42  1  0
 17 43  1  0
 19 44  1  0
 20 45  1  0
 23 46  1  0
 24 47  1  0
 24 48  1  0
M  END
>  <Energy>  (346) 
735.1860537672494

>  <compound_id>  (346) 
37737

>  <target_id>  (346) 
1

>  <reference_id>  (346) 
45

>  <inspiration_ids>  (346) 
[53, 45]

>  <energy_score>  (346) 
657.8827777506293

>  <distance_score>  (346) 
11.441016095412968

>  <path>  (346) 
/opt/xchem-fragalysis-2/maxwin/BulkDock/SCRATCH/511016/C37737-P45/C37737-P45.minimised.mol

>  <scratch_subdir>  (346) 
/opt/xchem-fragalysis-2/maxwin/BulkDock/SCRATCH/511016/C37737-P45

>  <fragmenstein_runtime>  (346) 
33.35957670211792

>  <fragmenstein_outcome>  (346) 
too moved

>  <fragmenstein_mode>  (346) 
expansion

>  <fragmenstein_error>  (346) 


$$$$
C37741-P53
     RDKit          3D

 50 52  0  0  0  0  0  0  0  0999 V2000
   -3.0920   -5.7550   21.3675 C   0  0  0  0  0  0  0  0  0  0  0  0
   -3.5338   -7.0176   22.1931 C   0  0  0  0  0  0  0  0  0  0  0  0
   -3.7962   -8.4000   21.6832 N   0  0  0  0  0  0  0  0  0  0  0  0
   -3.2975   -8.2044   19.8927 C   0  0  0  0  0  0  0  0  0  0  0  0
   -1.9176   -8.3305   19.1396 C   0  0  0  0  0  0  0  0  0  0  0  0
   -4.5836  -10.1519   22.1369 C   0  0  0  0  0  0  0  0  0  0  0  0
   -6.0630  -11.6074   23.0568 C   0  0  0  0  0  0  0  0  0  0  0  0
   -6.9655  -11.8720   22.3170 O   0  0  0  0  0  0  0  0  0  0  0  0
   -6.0479  -12.6369   24.6060 N   0  0  0  0  0  0  0  0  0  0  0  0
   -7.1561  -14.2091   25.2097 C   0  0  0  0  0  0  0  0  0  0  0  0
   -8.0710  -14.6366   26.2434 C   0  0  0  0  0  0  0  0  0  0  0  0
   -8.0309  -13.4850   27.1148 C   0  0  0  0  0  0  0  0  0  0  0  0
   -9.7422  -13.9200   27.3347 N   0  0  0  0  0  0  0  0  0  0  0  0
  -10.5116  -15.3052   27.0559 C   0  0  0  0  0  0  0  0  0  0  0  0
  -10.0747  -16.3929   26.7108 O   0  0  0  0  0  0  0  0  0  0  0  0
  -12.0774  -15.3488   27.0986 C   0  0  0  0  0  0  0  0  0  0  0  0
  -12.8159  -15.3352   28.3606 C   0  0  0  0  0  0  0  0  0  0  0  0
  -13.4977  -16.4342   28.7513 C   0  0  0  0  0  0  0  0  0  0  0  0
  -13.6190  -17.5115   27.8799 N   0  0  0  0  0  0  0  0  0  0  0  0
  -14.1277  -18.7692   28.0819 C   0  0  0  0  0  0  0  0  0  0  0  0
  -13.9612  -19.4262   26.8833 C   0  0  0  0  0  0  0  0  0  0  0  0
  -13.4101  -18.5939   25.9431 N   0  0  0  0  0  0  0  0  0  0  0  0
  -13.1947  -17.4531   26.5657 C   0  0  0  0  0  0  0  0  0  0  0  0
  -12.4679  -16.2836   26.1660 C   0  0  0  0  0  0  0  0  0  0  0  0
   -6.8658  -12.1967   26.0662 C   0  0  0  0  0  0  0  0  0  0  0  0
   -2.2207   -5.9603   20.7386 H   0  0  0  0  0  0  0  0  0  0  0  0
   -2.7393   -4.9574   22.0299 H   0  0  0  0  0  0  0  0  0  0  0  0
   -3.9101   -5.3554   20.7626 H   0  0  0  0  0  0  0  0  0  0  0  0
   -2.5990   -7.0445   22.7405 H   0  0  0  0  0  0  0  0  0  0  0  0
   -4.4264   -6.7222   22.7143 H   0  0  0  0  0  0  0  0  0  0  0  0
   -3.4371   -7.1557   19.6840 H   0  0  0  0  0  0  0  0  0  0  0  0
   -3.9213   -8.8152   19.2253 H   0  0  0  0  0  0  0  0  0  0  0  0
   -2.0534   -7.9742   18.1101 H   0  0  0  0  0  0  0  0  0  0  0  0
   -1.1394   -7.6969   19.5781 H   0  0  0  0  0  0  0  0  0  0  0  0
   -1.5773   -9.3653   19.0563 H   0  0  0  0  0  0  0  0  0  0  0  0
   -4.3259  -10.6451   21.1560 H   0  0  0  0  0  0  0  0  0  0  0  0
   -3.6948  -10.1959   22.8096 H   0  0  0  0  0  0  0  0  0  0  0  0
   -7.9202  -14.4984   24.6034 H   0  0  0  0  0  0  0  0  0  0  0  0
   -6.8800  -14.8086   24.3153 H   0  0  0  0  0  0  0  0  0  0  0  0
   -8.9028  -15.0353   25.7031 H   0  0  0  0  0  0  0  0  0  0  0  0
   -8.1124  -15.5949   26.7995 H   0  0  0  0  0  0  0  0  0  0  0  0
   -7.5057  -13.7357   28.0371 H   0  0  0  0  0  0  0  0  0  0  0  0
  -10.4085  -13.2031   27.5211 H   0  0  0  0  0  0  0  0  0  0  0  0
  -12.7304  -14.4590   28.9936 H   0  0  0  0  0  0  0  0  0  0  0  0
  -13.9819  -16.5190   29.7159 H   0  0  0  0  0  0  0  0  0  0  0  0
  -14.5272  -19.0883   29.0323 H   0  0  0  0  0  0  0  0  0  0  0  0
  -14.2121  -20.4515   26.6439 H   0  0  0  0  0  0  0  0  0  0  0  0
  -11.9089  -16.4569   25.2500 H   0  0  0  0  0  0  0  0  0  0  0  0
   -7.3136  -11.2589   25.7069 H   0  0  0  0  0  0  0  0  0  0  0  0
   -6.0674  -12.0891   26.7868 H   0  0  0  0  0  0  0  0  0  0  0  0
  1  2  1  0
  2  3  1  0
  3  4  1  0
  4  5  1  0
  3  6  1  0
  6  7  1  0
  7  8  2  0
  7  9  1  0
  9 10  1  0
 10 11  1  0
 11 12  1  0
 12 13  1  0
 13 14  1  0
 14 15  2  0
 14 16  1  0
 16 17  1  0
 17 18  2  0
 18 19  1  0
 19 20  1  0
 20 21  2  0
 21 22  1  0
 22 23  2  0
 23 24  1  0
 12 25  1  0
 25  9  1  0
 24 16  2  0
 23 19  1  0
  1 26  1  0
  1 27  1  0
  1 28  1  0
  2 29  1  0
  2 30  1  0
  4 31  1  0
  4 32  1  0
  5 33  1  0
  5 34  1  0
  5 35  1  0
  6 36  1  0
  6 37  1  0
 10 38  1  0
 10 39  1  0
 11 40  1  0
 11 41  1  0
 12 42  1  0
 13 43  1  0
 17 44  1  0
 18 45  1  0
 20 46  1  0
 21 47  1  0
 24 48  1  0
 25 49  1  0
 25 50  1  0
M  END
>  <Energy>  (347) 
1049.8336807098826

>  <compound_id>  (347) 
37741

>  <target_id>  (347) 
1

>  <reference_id>  (347) 
53

>  <inspiration_ids>  (347) 
[53, 45]

>  <energy_score>  (347) 
944.3855846615418

>  <distance_score>  (347) 
12.768813718885944

>  <path>  (347) 
/opt/xchem-fragalysis-2/maxwin/BulkDock/SCRATCH/511016/C37741-P53/C37741-P53.minimised.mol

>  <scratch_subdir>  (347) 
/opt/xchem-fragalysis-2/maxwin/BulkDock/SCRATCH/511016/C37741-P53

>  <fragmenstein_runtime>  (347) 
43.853991746902466

>  <fragmenstein_outcome>  (347) 
too moved

>  <fragmenstein_mode>  (347) 
expansion

>  <fragmenstein_error>  (347) 


$$$$
C37741-P45
     RDKit          3D

 50 52  0  0  0  0  0  0  0  0999 V2000
   -2.6350   -3.5391   31.8797 C   0  0  0  0  0  0  0  0  0  0  0  0
   -3.8374   -2.9035   31.1765 C   0  0  0  0  0  0  0  0  0  0  0  0
   -3.8687   -3.2362   29.7066 N   0  0  0  0  0  0  0  0  0  0  0  0
   -2.7685   -2.4513   28.9716 C   0  0  0  0  0  0  0  0  0  0  0  0
   -2.0676   -1.2177   29.5934 C   0  0  0  0  0  0  0  0  0  0  0  0
   -5.5397   -3.6918   28.9528 C   0  0  0  0  0  0  0  0  0  0  0  0
   -5.4526   -5.0494   29.4998 C   0  0  0  0  0  0  0  0  0  0  0  0
   -4.6735   -5.0349   30.4834 O   0  0  0  0  0  0  0  0  0  0  0  0
   -6.0646   -6.8397   29.0164 N   0  0  0  0  0  0  0  0  0  0  0  0
   -5.6830   -8.3428   29.5632 C   0  0  0  0  0  0  0  0  0  0  0  0
   -6.7062   -9.4367   28.8408 C   0  0  0  0  0  0  0  0  0  0  0  0
   -6.3106  -10.1174   27.0285 C   0  0  0  0  0  0  0  0  0  0  0  0
   -6.2341  -12.3457   27.2073 N   0  0  0  0  0  0  0  0  0  0  0  0
   -7.6725  -13.8704   27.3807 C   0  0  0  0  0  0  0  0  0  0  0  0
   -8.7680  -13.3883   27.3967 O   0  0  0  0  0  0  0  0  0  0  0  0
   -7.8909  -16.1032   27.3568 C   0  0  0  0  0  0  0  0  0  0  0  0
   -7.7543  -17.7404   28.3660 C   0  0  0  0  0  0  0  0  0  0  0  0
   -8.3285  -19.3749   28.4967 C   0  0  0  0  0  0  0  0  0  0  0  0
   -7.6221  -20.7174   27.7703 N   0  0  0  0  0  0  0  0  0  0  0  0
   -7.2702  -22.0378   27.7569 C   0  0  0  0  0  0  0  0  0  0  0  0
   -5.9482  -21.8434   27.4424 C   0  0  0  0  0  0  0  0  0  0  0  0
   -5.7533  -20.2418   26.9118 N   0  0  0  0  0  0  0  0  0  0  0  0
   -7.1136  -19.7462   26.9513 C   0  0  0  0  0  0  0  0  0  0  0  0
   -8.1683  -17.8965   27.3188 C   0  0  0  0  0  0  0  0  0  0  0  0
   -5.3467   -8.2923   27.7371 C   0  0  0  0  0  0  0  0  0  0  0  0
   -2.7393   -4.6269   31.9419 H   0  0  0  0  0  0  0  0  0  0  0  0
   -1.6808   -3.3383   31.3897 H   0  0  0  0  0  0  0  0  0  0  0  0
   -2.5676   -3.1618   32.9058 H   0  0  0  0  0  0  0  0  0  0  0  0
   -4.7641   -3.1997   31.6836 H   0  0  0  0  0  0  0  0  0  0  0  0
   -3.7685   -1.8289   31.3699 H   0  0  0  0  0  0  0  0  0  0  0  0
   -3.1451   -2.0941   28.0050 H   0  0  0  0  0  0  0  0  0  0  0  0
   -1.9290   -3.1461   28.8490 H   0  0  0  0  0  0  0  0  0  0  0  0
   -1.4670   -1.4706   30.4690 H   0  0  0  0  0  0  0  0  0  0  0  0
   -1.3766   -0.7954   28.8543 H   0  0  0  0  0  0  0  0  0  0  0  0
   -2.7566   -0.4204   29.8762 H   0  0  0  0  0  0  0  0  0  0  0  0
   -6.3036   -3.2720   29.5886 H   0  0  0  0  0  0  0  0  0  0  0  0
   -5.2892   -3.2582   28.0088 H   0  0  0  0  0  0  0  0  0  0  0  0
   -5.6324   -8.6878   30.6305 H   0  0  0  0  0  0  0  0  0  0  0  0
   -4.6413   -8.1213   29.3711 H   0  0  0  0  0  0  0  0  0  0  0  0
   -6.6375  -10.2118   29.6078 H   0  0  0  0  0  0  0  0  0  0  0  0
   -7.7772   -9.2561   28.8317 H   0  0  0  0  0  0  0  0  0  0  0  0
   -7.2312   -9.8688   26.4280 H   0  0  0  0  0  0  0  0  0  0  0  0
   -5.3854  -12.7346   27.2783 H   0  0  0  0  0  0  0  0  0  0  0  0
   -6.6156  -17.6061   28.5966 H   0  0  0  0  0  0  0  0  0  0  0  0
   -9.2019  -19.8639   28.2449 H   0  0  0  0  0  0  0  0  0  0  0  0
   -7.8226  -22.8689   28.1665 H   0  0  0  0  0  0  0  0  0  0  0  0
   -5.1330  -22.5403   27.4332 H   0  0  0  0  0  0  0  0  0  0  0  0
   -9.1917  -17.8177   26.8510 H   0  0  0  0  0  0  0  0  0  0  0  0
   -4.3599   -7.9465   27.4584 H   0  0  0  0  0  0  0  0  0  0  0  0
   -5.9176   -8.2201   26.9037 H   0  0  0  0  0  0  0  0  0  0  0  0
  1  2  1  0
  2  3  1  0
  3  4  1  0
  4  5  1  0
  3  6  1  0
  6  7  1  0
  7  8  2  0
  7  9  1  0
  9 10  1  0
 10 11  1  0
 11 12  1  0
 12 13  1  0
 13 14  1  0
 14 15  2  0
 14 16  1  0
 16 17  1  0
 17 18  2  0
 18 19  1  0
 19 20  1  0
 20 21  2  0
 21 22  1  0
 22 23  2  0
 23 24  1  0
 12 25  1  0
 25  9  1  0
 24 16  2  0
 23 19  1  0
  1 26  1  0
  1 27  1  0
  1 28  1  0
  2 29  1  0
  2 30  1  0
  4 31  1  0
  4 32  1  0
  5 33  1  0
  5 34  1  0
  5 35  1  0
  6 36  1  0
  6 37  1  0
 10 38  1  0
 10 39  1  0
 11 40  1  0
 11 41  1  0
 12 42  1  0
 13 43  1  0
 17 44  1  0
 18 45  1  0
 20 46  1  0
 21 47  1  0
 24 48  1  0
 25 49  1  0
 25 50  1  0
M  END
>  <Energy>  (348) 
2487.7418199284812

>  <compound_id>  (348) 
37741

>  <target_id>  (348) 
1

>  <reference_id>  (348) 
45

>  <inspiration_ids>  (348) 
[53, 45]

>  <energy_score>  (348) 
2382.293723880172

>  <distance_score>  (348) 
9.39229498658687

>  <path>  (348) 
/opt/xchem-fragalysis-2/maxwin/BulkDock/SCRATCH/511016/C37741-P45/C37741-P45.minimised.mol

>  <scratch_subdir>  (348) 
/opt/xchem-fragalysis-2/maxwin/BulkDock/SCRATCH/511016/C37741-P45

>  <fragmenstein_runtime>  (348) 
25.230765342712402

>  <fragmenstein_outcome>  (348) 
too moved

>  <fragmenstein_mode>  (348) 
expansion

>  <fragmenstein_error>  (348) 


$$$$
C37742-P53
     RDKit          3D

 51 53  0  0  0  0  0  0  0  0999 V2000
   -6.8312   -6.8167   29.7432 C   0  0  0  0  0  0  0  0  0  0  0  0
   -7.1590   -6.2849   28.3684 C   0  0  0  0  0  0  0  0  0  0  0  0
   -8.2291   -7.0915   27.6450 C   0  0  0  0  0  0  0  0  0  0  0  0
   -9.0076   -6.1606   26.6613 C   0  0  0  0  0  0  0  0  0  0  0  0
   -9.3503   -4.7385   27.1387 C   0  0  0  0  0  0  0  0  0  0  0  0
   -7.6308   -8.5876   26.9299 C   0  0  0  0  0  0  0  0  0  0  0  0
   -8.8415   -9.8675   27.3950 C   0  0  0  0  0  0  0  0  0  0  0  0
   -9.5454   -9.4327   28.3653 O   0  0  0  0  0  0  0  0  0  0  0  0
   -8.8942  -11.7407   26.5789 N   0  0  0  0  0  0  0  0  0  0  0  0
   -7.8581  -13.2493   27.0789 C   0  0  0  0  0  0  0  0  0  0  0  0
   -8.4601  -14.9028   26.5399 C   0  0  0  0  0  0  0  0  0  0  0  0
   -9.8184  -15.3138   26.8621 C   0  0  0  0  0  0  0  0  0  0  0  0
  -10.0892  -17.2199   26.9425 N   0  0  0  0  0  0  0  0  0  0  0  0
   -9.2441  -18.5439   27.9257 C   0  0  0  0  0  0  0  0  0  0  0  0
   -8.4580  -18.2290   28.7016 O   0  0  0  0  0  0  0  0  0  0  0  0
   -9.3037  -20.6677   27.7943 C   0  0  0  0  0  0  0  0  0  0  0  0
   -9.9798  -22.4751   28.0863 C   0  0  0  0  0  0  0  0  0  0  0  0
   -9.3461  -23.9481   27.5291 C   0  0  0  0  0  0  0  0  0  0  0  0
   -7.7985  -24.7481   26.9408 N   0  0  0  0  0  0  0  0  0  0  0  0
   -5.9553  -26.0512   27.2452 C   0  0  0  0  0  0  0  0  0  0  0  0
   -5.0638  -25.0663   28.5479 C   0  0  0  0  0  0  0  0  0  0  0  0
   -6.1125  -23.5140   29.0267 N   0  0  0  0  0  0  0  0  0  0  0  0
   -7.4528  -23.1730   28.0539 C   0  0  0  0  0  0  0  0  0  0  0  0
   -7.8856  -21.5506   27.7637 C   0  0  0  0  0  0  0  0  0  0  0  0
   -9.9883  -13.3246   27.1612 C   0  0  0  0  0  0  0  0  0  0  0  0
   -6.2868   -7.7577   29.6878 H   0  0  0  0  0  0  0  0  0  0  0  0
   -7.7429   -6.9931   30.3244 H   0  0  0  0  0  0  0  0  0  0  0  0
   -6.2390   -6.0977   30.3090 H   0  0  0  0  0  0  0  0  0  0  0  0
   -7.4547   -5.2510   28.5432 H   0  0  0  0  0  0  0  0  0  0  0  0
   -6.3257   -6.2809   27.6875 H   0  0  0  0  0  0  0  0  0  0  0  0
   -8.9643   -7.3609   28.4072 H   0  0  0  0  0  0  0  0  0  0  0  0
   -8.5170   -6.1199   25.6879 H   0  0  0  0  0  0  0  0  0  0  0  0
   -9.9767   -6.6422   26.4780 H   0  0  0  0  0  0  0  0  0  0  0  0
  -10.0422   -4.2768   26.4256 H   0  0  0  0  0  0  0  0  0  0  0  0
   -8.4958   -4.0707   27.2238 H   0  0  0  0  0  0  0  0  0  0  0  0
   -9.8563   -4.7764   28.1091 H   0  0  0  0  0  0  0  0  0  0  0  0
   -7.4789   -8.2508   25.9170 H   0  0  0  0  0  0  0  0  0  0  0  0
   -6.7348   -8.7500   27.5185 H   0  0  0  0  0  0  0  0  0  0  0  0
   -6.9052  -13.0424   26.6061 H   0  0  0  0  0  0  0  0  0  0  0  0
   -7.6519  -13.4682   28.1167 H   0  0  0  0  0  0  0  0  0  0  0  0
   -8.1206  -15.6530   27.2567 H   0  0  0  0  0  0  0  0  0  0  0  0
   -8.1437  -15.1086   25.5300 H   0  0  0  0  0  0  0  0  0  0  0  0
  -10.7829  -15.3259   26.3553 H   0  0  0  0  0  0  0  0  0  0  0  0
  -10.6881  -17.6599   26.2459 H   0  0  0  0  0  0  0  0  0  0  0  0
  -11.0552  -22.4053   28.2664 H   0  0  0  0  0  0  0  0  0  0  0  0
  -10.0760  -24.7060   27.3144 H   0  0  0  0  0  0  0  0  0  0  0  0
   -5.3523  -26.5813   26.4214 H   0  0  0  0  0  0  0  0  0  0  0  0
   -5.4230  -25.8867   29.3156 H   0  0  0  0  0  0  0  0  0  0  0  0
   -7.6588  -21.9584   26.8228 H   0  0  0  0  0  0  0  0  0  0  0  0
   -9.7542  -13.5275   28.1921 H   0  0  0  0  0  0  0  0  0  0  0  0
  -11.0563  -13.0455   27.0309 H   0  0  0  0  0  0  0  0  0  0  0  0
  1  2  1  0
  2  3  1  0
  3  4  1  0
  4  5  1  0
  3  6  1  0
  6  7  1  0
  7  8  2  0
  7  9  1  0
  9 10  1  0
 10 11  1  0
 11 12  1  0
 12 13  1  0
 13 14  1  0
 14 15  2  0
 14 16  1  0
 16 17  1  0
 17 18  2  0
 18 19  1  0
 19 20  1  0
 20 21  2  0
 21 22  1  0
 22 23  2  0
 23 24  1  0
 12 25  1  0
 25  9  1  0
 24 16  2  0
 23 19  1  0
  1 26  1  0
  1 27  1  0
  1 28  1  0
  2 29  1  0
  2 30  1  0
  3 31  1  0
  4 32  1  0
  4 33  1  0
  5 34  1  0
  5 35  1  0
  5 36  1  0
  6 37  1  0
  6 38  1  0
 10 39  1  0
 10 40  1  0
 11 41  1  0
 11 42  1  0
 12 43  1  0
 13 44  1  0
 17 45  1  0
 18 46  1  0
 20 47  1  0
 21 48  1  0
 24 49  1  0
 25 50  1  0
 25 51  1  0
M  END
>  <Energy>  (349) 
2161.5444455176053

>  <compound_id>  (349) 
37742

>  <target_id>  (349) 
1

>  <reference_id>  (349) 
53

>  <inspiration_ids>  (349) 
[53, 45]

>  <energy_score>  (349) 
2101.58309492615

>  <distance_score>  (349) 
9.613622989207112

>  <path>  (349) 
/opt/xchem-fragalysis-2/maxwin/BulkDock/SCRATCH/511016/C37742-P53/C37742-P53.minimised.mol

>  <scratch_subdir>  (349) 
/opt/xchem-fragalysis-2/maxwin/BulkDock/SCRATCH/511016/C37742-P53

>  <fragmenstein_runtime>  (349) 
33.16326856613159

>  <fragmenstein_outcome>  (349) 
too moved

>  <fragmenstein_mode>  (349) 
expansion

>  <fragmenstein_error>  (349) 


$$$$
C37742-P45
     RDKit          3D

 51 53  0  0  0  0  0  0  0  0999 V2000
   -2.2255   -5.8228   32.0877 C   0  0  0  0  0  0  0  0  0  0  0  0
   -2.6193   -7.1616   31.4582 C   0  0  0  0  0  0  0  0  0  0  0  0
   -1.4578   -8.2075   31.2789 C   0  0  0  0  0  0  0  0  0  0  0  0
   -0.3003   -7.6510   30.3841 C   0  0  0  0  0  0  0  0  0  0  0  0
   -0.6223   -6.7029   29.2219 C   0  0  0  0  0  0  0  0  0  0  0  0
   -2.0313   -9.8953   30.9747 C   0  0  0  0  0  0  0  0  0  0  0  0
   -1.6890  -10.8718   29.4530 C   0  0  0  0  0  0  0  0  0  0  0  0
   -0.5671  -10.5451   29.0000 O   0  0  0  0  0  0  0  0  0  0  0  0
   -2.8112  -12.2678   28.8669 N   0  0  0  0  0  0  0  0  0  0  0  0
   -2.5388  -13.4245   29.5892 C   0  0  0  0  0  0  0  0  0  0  0  0
   -2.2092  -14.8842   29.4613 C   0  0  0  0  0  0  0  0  0  0  0  0
   -2.6045  -15.5186   28.0101 C   0  0  0  0  0  0  0  0  0  0  0  0
   -3.2958  -17.3504   27.4249 N   0  0  0  0  0  0  0  0  0  0  0  0
   -4.9744  -18.3324   27.7889 C   0  0  0  0  0  0  0  0  0  0  0  0
   -5.8183  -17.8246   28.6204 O   0  0  0  0  0  0  0  0  0  0  0  0
   -5.7296  -20.1550   27.0345 C   0  0  0  0  0  0  0  0  0  0  0  0
   -5.1191  -21.5907   26.7486 C   0  0  0  0  0  0  0  0  0  0  0  0
   -5.2960  -22.9048   27.1969 C   0  0  0  0  0  0  0  0  0  0  0  0
   -6.4765  -23.3431   27.6099 N   0  0  0  0  0  0  0  0  0  0  0  0
   -7.0001  -24.5978   27.6727 C   0  0  0  0  0  0  0  0  0  0  0  0
   -8.3050  -24.3941   28.0247 C   0  0  0  0  0  0  0  0  0  0  0  0
   -8.5406  -23.0481   28.1198 N   0  0  0  0  0  0  0  0  0  0  0  0
   -7.4274  -22.4404   27.7380 C   0  0  0  0  0  0  0  0  0  0  0  0
   -7.0248  -21.0307   27.5454 C   0  0  0  0  0  0  0  0  0  0  0  0
   -2.5942  -13.5827   27.2145 C   0  0  0  0  0  0  0  0  0  0  0  0
   -3.1024   -5.1707   32.1532 H   0  0  0  0  0  0  0  0  0  0  0  0
   -1.4532   -5.2914   31.5318 H   0  0  0  0  0  0  0  0  0  0  0  0
   -1.8506   -5.9826   33.1041 H   0  0  0  0  0  0  0  0  0  0  0  0
   -3.0940   -6.9556   30.4989 H   0  0  0  0  0  0  0  0  0  0  0  0
   -3.3892   -7.6201   32.0910 H   0  0  0  0  0  0  0  0  0  0  0  0
   -1.0251   -8.3260   32.2850 H   0  0  0  0  0  0  0  0  0  0  0  0
    0.2894   -8.4918   30.0082 H   0  0  0  0  0  0  0  0  0  0  0  0
    0.3811   -7.1012   31.0478 H   0  0  0  0  0  0  0  0  0  0  0  0
   -1.3315   -7.1512   28.5280 H   0  0  0  0  0  0  0  0  0  0  0  0
    0.2949   -6.4871   28.6633 H   0  0  0  0  0  0  0  0  0  0  0  0
   -1.0287   -5.7459   29.5496 H   0  0  0  0  0  0  0  0  0  0  0  0
   -2.9562  -10.0773   31.5135 H   0  0  0  0  0  0  0  0  0  0  0  0
   -1.2015  -10.3357   31.5460 H   0  0  0  0  0  0  0  0  0  0  0  0
   -2.1366  -12.7936   30.3479 H   0  0  0  0  0  0  0  0  0  0  0  0
   -3.5699  -13.4509   29.9863 H   0  0  0  0  0  0  0  0  0  0  0  0
   -2.8191  -15.3628   30.2233 H   0  0  0  0  0  0  0  0  0  0  0  0
   -1.1808  -15.0834   29.7492 H   0  0  0  0  0  0  0  0  0  0  0  0
   -1.6235  -15.7823   27.6917 H   0  0  0  0  0  0  0  0  0  0  0  0
   -2.7904  -17.8416   26.6926 H   0  0  0  0  0  0  0  0  0  0  0  0
   -4.6070  -21.2182   25.8457 H   0  0  0  0  0  0  0  0  0  0  0  0
   -4.7256  -23.7986   26.9831 H   0  0  0  0  0  0  0  0  0  0  0  0
   -6.4350  -25.4856   27.4270 H   0  0  0  0  0  0  0  0  0  0  0  0
   -9.0859  -25.1238   28.1947 H   0  0  0  0  0  0  0  0  0  0  0  0
   -7.8177  -20.4950   27.9493 H   0  0  0  0  0  0  0  0  0  0  0  0
   -3.4331  -12.9782   26.8827 H   0  0  0  0  0  0  0  0  0  0  0  0
   -2.2225  -13.5033   26.1516 H   0  0  0  0  0  0  0  0  0  0  0  0
  1  2  1  0
  2  3  1  0
  3  4  1  0
  4  5  1  0
  3  6  1  0
  6  7  1  0
  7  8  2  0
  7  9  1  0
  9 10  1  0
 10 11  1  0
 11 12  1  0
 12 13  1  0
 13 14  1  0
 14 15  2  0
 14 16  1  0
 16 17  1  0
 17 18  2  0
 18 19  1  0
 19 20  1  0
 20 21  2  0
 21 22  1  0
 22 23  2  0
 23 24  1  0
 12 25  1  0
 25  9  1  0
 24 16  2  0
 23 19  1  0
  1 26  1  0
  1 27  1  0
  1 28  1  0
  2 29  1  0
  2 30  1  0
  3 31  1  0
  4 32  1  0
  4 33  1  0
  5 34  1  0
  5 35  1  0
  5 36  1  0
  6 37  1  0
  6 38  1  0
 10 39  1  0
 10 40  1  0
 11 41  1  0
 11 42  1  0
 12 43  1  0
 13 44  1  0
 17 45  1  0
 18 46  1  0
 20 47  1  0
 21 48  1  0
 24 49  1  0
 25 50  1  0
 25 51  1  0
M  END
>  <Energy>  (350) 
997.73233350998771

>  <compound_id>  (350) 
37742

>  <target_id>  (350) 
1

>  <reference_id>  (350) 
45

>  <inspiration_ids>  (350) 
[53, 45]

>  <energy_score>  (350) 
937.7709829185383

>  <distance_score>  (350) 
9.374705375988203

>  <path>  (350) 
/opt/xchem-fragalysis-2/maxwin/BulkDock/SCRATCH/511016/C37742-P45/C37742-P45.minimised.mol

>  <scratch_subdir>  (350) 
/opt/xchem-fragalysis-2/maxwin/BulkDock/SCRATCH/511016/C37742-P45

>  <fragmenstein_runtime>  (350) 
24.339000701904297

>  <fragmenstein_outcome>  (350) 
too moved

>  <fragmenstein_mode>  (350) 
expansion

>  <fragmenstein_error>  (350) 


$$$$
C37744-P53
     RDKit          3D

 46 48  0  0  0  0  0  0  0  0999 V2000
   -3.6411   -2.9448   28.7297 C   0  0  0  0  0  0  0  0  0  0  0  0
   -5.3573   -3.9276   28.7803 C   0  0  0  0  0  0  0  0  0  0  0  0
   -6.1144   -5.6708   28.1727 C   0  0  0  0  0  0  0  0  0  0  0  0
   -7.5747   -5.0017   27.7409 O   0  0  0  0  0  0  0  0  0  0  0  0
   -8.0876   -3.6230   27.9184 C   0  0  0  0  0  0  0  0  0  0  0  0
   -5.5196   -7.7035   27.6905 C   0  0  0  0  0  0  0  0  0  0  0  0
   -4.4696   -8.0641   27.9352 O   0  0  0  0  0  0  0  0  0  0  0  0
   -7.0211   -8.5730   26.7188 N   0  0  0  0  0  0  0  0  0  0  0  0
   -6.9969  -10.0893   25.8814 C   0  0  0  0  0  0  0  0  0  0  0  0
   -7.1061  -11.4914   25.7019 C   0  0  0  0  0  0  0  0  0  0  0  0
   -8.6169  -11.4797   26.3726 C   0  0  0  0  0  0  0  0  0  0  0  0
   -8.1774  -13.3403   27.0942 N   0  0  0  0  0  0  0  0  0  0  0  0
   -9.2162  -14.7597   27.4096 C   0  0  0  0  0  0  0  0  0  0  0  0
  -10.4402  -14.8323   27.3259 O   0  0  0  0  0  0  0  0  0  0  0  0
   -8.4736  -16.5166   27.7909 C   0  0  0  0  0  0  0  0  0  0  0  0
   -9.3663  -17.8310   28.3482 C   0  0  0  0  0  0  0  0  0  0  0  0
   -9.1085  -19.5532   28.3798 C   0  0  0  0  0  0  0  0  0  0  0  0
   -7.9806  -20.5591   27.6666 N   0  0  0  0  0  0  0  0  0  0  0  0
   -7.4422  -21.8317   27.6973 C   0  0  0  0  0  0  0  0  0  0  0  0
   -6.1298  -21.5221   27.4557 C   0  0  0  0  0  0  0  0  0  0  0  0
   -6.0312  -19.8967   26.8425 N   0  0  0  0  0  0  0  0  0  0  0  0
   -7.3402  -19.4293   26.9650 C   0  0  0  0  0  0  0  0  0  0  0  0
   -8.5662  -17.8418   27.3309 C   0  0  0  0  0  0  0  0  0  0  0  0
   -8.3255   -9.5549   27.3215 C   0  0  0  0  0  0  0  0  0  0  0  0
   -2.6136   -3.3949   28.8369 H   0  0  0  0  0  0  0  0  0  0  0  0
   -3.6458   -2.1436   27.9742 H   0  0  0  0  0  0  0  0  0  0  0  0
   -3.2597   -2.6322   29.7691 H   0  0  0  0  0  0  0  0  0  0  0  0
   -5.9898   -3.1973   28.3597 H   0  0  0  0  0  0  0  0  0  0  0  0
   -5.7104   -3.8968   29.8340 H   0  0  0  0  0  0  0  0  0  0  0  0
   -6.1603   -6.0239   29.1997 H   0  0  0  0  0  0  0  0  0  0  0  0
   -7.9603   -3.2393   28.9351 H   0  0  0  0  0  0  0  0  0  0  0  0
   -9.1625   -3.6749   27.6980 H   0  0  0  0  0  0  0  0  0  0  0  0
   -7.7505   -2.8638   27.2272 H   0  0  0  0  0  0  0  0  0  0  0  0
   -7.0741   -9.8161   24.8630 H   0  0  0  0  0  0  0  0  0  0  0  0
   -6.0552  -10.3655   26.2492 H   0  0  0  0  0  0  0  0  0  0  0  0
   -6.4931  -12.1432   26.3078 H   0  0  0  0  0  0  0  0  0  0  0  0
   -6.6769  -11.6446   24.7008 H   0  0  0  0  0  0  0  0  0  0  0  0
   -9.5326  -11.4619   25.7209 H   0  0  0  0  0  0  0  0  0  0  0  0
   -7.2252  -13.5596   27.3253 H   0  0  0  0  0  0  0  0  0  0  0  0
  -10.2786  -17.3411   28.8065 H   0  0  0  0  0  0  0  0  0  0  0  0
   -9.8884  -20.4346   28.3820 H   0  0  0  0  0  0  0  0  0  0  0  0
   -7.9921  -22.7241   27.9195 H   0  0  0  0  0  0  0  0  0  0  0  0
   -5.2353  -22.0582   27.2947 H   0  0  0  0  0  0  0  0  0  0  0  0
   -9.3762  -17.5401   26.4814 H   0  0  0  0  0  0  0  0  0  0  0  0
   -9.3098   -9.2316   27.7591 H   0  0  0  0  0  0  0  0  0  0  0  0
   -7.9401   -9.4403   28.4026 H   0  0  0  0  0  0  0  0  0  0  0  0
  1  2  1  0
  2  3  1  0
  3  4  1  0
  4  5  1  0
  3  6  1  0
  6  7  2  0
  6  8  1  0
  8  9  1  0
  9 10  1  0
 10 11  1  0
 11 12  1  0
 12 13  1  0
 13 14  2  0
 13 15  1  0
 15 16  1  0
 16 17  2  0
 17 18  1  0
 18 19  1  0
 19 20  2  0
 20 21  1  0
 21 22  2  0
 22 23  1  0
 11 24  1  0
 24  8  1  0
 23 15  2  0
 22 18  1  0
  1 25  1  0
  1 26  1  0
  1 27  1  0
  2 28  1  0
  2 29  1  0
  3 30  1  0
  5 31  1  0
  5 32  1  0
  5 33  1  0
  9 34  1  0
  9 35  1  0
 10 36  1  0
 10 37  1  0
 11 38  1  0
 12 39  1  0
 16 40  1  0
 17 41  1  0
 19 42  1  0
 20 43  1  0
 23 44  1  0
 24 45  1  0
 24 46  1  0
M  END
>  <Energy>  (351) 
1608.3706742217485

>  <compound_id>  (351) 
37744

>  <target_id>  (351) 
1

>  <reference_id>  (351) 
53

>  <inspiration_ids>  (351) 
[53, 45]

>  <energy_score>  (351) 
1503.046128037781

>  <distance_score>  (351) 
9.712660352660064

>  <path>  (351) 
/opt/xchem-fragalysis-2/maxwin/BulkDock/SCRATCH/511016/C37744-P53/C37744-P53.minimised.mol

>  <scratch_subdir>  (351) 
/opt/xchem-fragalysis-2/maxwin/BulkDock/SCRATCH/511016/C37744-P53

>  <fragmenstein_runtime>  (351) 
26.864202976226807

>  <fragmenstein_outcome>  (351) 
too moved

>  <fragmenstein_mode>  (351) 
expansion

>  <fragmenstein_error>  (351) 


$$$$
C37744-P45
     RDKit          3D

 46 48  0  0  0  0  0  0  0  0999 V2000
   -1.4207   -6.8126   25.5435 C   0  0  0  0  0  0  0  0  0  0  0  0
   -2.2627   -6.9432   26.8553 C   0  0  0  0  0  0  0  0  0  0  0  0
   -4.0531   -7.5965   27.4587 C   0  0  0  0  0  0  0  0  0  0  0  0
   -2.9063   -7.2746   28.9079 O   0  0  0  0  0  0  0  0  0  0  0  0
   -1.4639   -7.1985   29.2567 C   0  0  0  0  0  0  0  0  0  0  0  0
   -5.0925   -8.5673   28.8328 C   0  0  0  0  0  0  0  0  0  0  0  0
   -4.7392   -8.2028   29.8065 O   0  0  0  0  0  0  0  0  0  0  0  0
   -6.2604  -10.0795   29.1773 N   0  0  0  0  0  0  0  0  0  0  0  0
   -6.6224  -10.6543   30.3438 C   0  0  0  0  0  0  0  0  0  0  0  0
   -5.6447  -12.4360   30.9343 C   0  0  0  0  0  0  0  0  0  0  0  0
   -5.9479  -14.1625   29.8906 C   0  0  0  0  0  0  0  0  0  0  0  0
   -5.3007  -16.1864   29.3660 N   0  0  0  0  0  0  0  0  0  0  0  0
   -6.2002  -17.7270   28.3200 C   0  0  0  0  0  0  0  0  0  0  0  0
   -7.3545  -17.4175   28.0929 O   0  0  0  0  0  0  0  0  0  0  0  0
   -5.7678  -19.6666   27.1891 C   0  0  0  0  0  0  0  0  0  0  0  0
   -5.3767  -21.5298   27.2983 C   0  0  0  0  0  0  0  0  0  0  0  0
   -5.5876  -22.8538   26.9897 C   0  0  0  0  0  0  0  0  0  0  0  0
   -6.8279  -23.2777   27.1327 N   0  0  0  0  0  0  0  0  0  0  0  0
   -7.3905  -24.5060   27.2478 C   0  0  0  0  0  0  0  0  0  0  0  0
   -8.5588  -24.2514   27.9122 C   0  0  0  0  0  0  0  0  0  0  0  0
   -8.6540  -22.9024   28.1841 N   0  0  0  0  0  0  0  0  0  0  0  0
   -7.5998  -22.3094   27.6304 C   0  0  0  0  0  0  0  0  0  0  0  0
   -7.1083  -20.7766   27.4772 C   0  0  0  0  0  0  0  0  0  0  0  0
   -5.5191  -12.0913   29.2474 C   0  0  0  0  0  0  0  0  0  0  0  0
   -1.7035   -6.1364   24.7388 H   0  0  0  0  0  0  0  0  0  0  0  0
   -0.4213   -6.4540   25.8337 H   0  0  0  0  0  0  0  0  0  0  0  0
   -1.2220   -7.7844   25.1215 H   0  0  0  0  0  0  0  0  0  0  0  0
   -1.4508   -7.5225   27.2680 H   0  0  0  0  0  0  0  0  0  0  0  0
   -1.9949   -6.0055   27.3293 H   0  0  0  0  0  0  0  0  0  0  0  0
   -3.6987   -8.2676   26.7573 H   0  0  0  0  0  0  0  0  0  0  0  0
   -0.8956   -8.1054   29.0160 H   0  0  0  0  0  0  0  0  0  0  0  0
   -1.4278   -7.1291   30.3523 H   0  0  0  0  0  0  0  0  0  0  0  0
   -0.9441   -6.3040   28.8955 H   0  0  0  0  0  0  0  0  0  0  0  0
   -7.6708  -10.3723   30.5127 H   0  0  0  0  0  0  0  0  0  0  0  0
   -6.1173   -9.9139   30.9307 H   0  0  0  0  0  0  0  0  0  0  0  0
   -6.3494  -12.5649   31.7595 H   0  0  0  0  0  0  0  0  0  0  0  0
   -4.6122  -12.1393   31.0560 H   0  0  0  0  0  0  0  0  0  0  0  0
   -6.7438  -14.1060   29.1351 H   0  0  0  0  0  0  0  0  0  0  0  0
   -4.3745  -16.4902   29.6193 H   0  0  0  0  0  0  0  0  0  0  0  0
   -5.2051  -21.8261   28.3601 H   0  0  0  0  0  0  0  0  0  0  0  0
   -4.9223  -23.6433   27.3515 H   0  0  0  0  0  0  0  0  0  0  0  0
   -6.9187  -25.4154   26.9035 H   0  0  0  0  0  0  0  0  0  0  0  0
   -9.3247  -24.9476   28.2281 H   0  0  0  0  0  0  0  0  0  0  0  0
   -7.9019  -20.3128   28.0108 H   0  0  0  0  0  0  0  0  0  0  0  0
   -4.3889  -12.1052   29.2218 H   0  0  0  0  0  0  0  0  0  0  0  0
   -5.7857  -12.2838   28.1893 H   0  0  0  0  0  0  0  0  0  0  0  0
  1  2  1  0
  2  3  1  0
  3  4  1  0
  4  5  1  0
  3  6  1  0
  6  7  2  0
  6  8  1  0
  8  9  1  0
  9 10  1  0
 10 11  1  0
 11 12  1  0
 12 13  1  0
 13 14  2  0
 13 15  1  0
 15 16  1  0
 16 17  2  0
 17 18  1  0
 18 19  1  0
 19 20  2  0
 20 21  1  0
 21 22  2  0
 22 23  1  0
 11 24  1  0
 24  8  1  0
 23 15  2  0
 22 18  1  0
  1 25  1  0
  1 26  1  0
  1 27  1  0
  2 28  1  0
  2 29  1  0
  3 30  1  0
  5 31  1  0
  5 32  1  0
  5 33  1  0
  9 34  1  0
  9 35  1  0
 10 36  1  0
 10 37  1  0
 11 38  1  0
 12 39  1  0
 16 40  1  0
 17 41  1  0
 19 42  1  0
 20 43  1  0
 23 44  1  0
 24 45  1  0
 24 46  1  0
M  END
>  <Energy>  (352) 
2172.171834511048

>  <compound_id>  (352) 
37744

>  <target_id>  (352) 
1

>  <reference_id>  (352) 
45

>  <inspiration_ids>  (352) 
[53, 45]

>  <energy_score>  (352) 
2066.847288327104

>  <distance_score>  (352) 
8.875224445661042

>  <path>  (352) 
/opt/xchem-fragalysis-2/maxwin/BulkDock/SCRATCH/511016/C37744-P45/C37744-P45.minimised.mol

>  <scratch_subdir>  (352) 
/opt/xchem-fragalysis-2/maxwin/BulkDock/SCRATCH/511016/C37744-P45

>  <fragmenstein_runtime>  (352) 
18.292914628982544

>  <fragmenstein_outcome>  (352) 
too moved

>  <fragmenstein_mode>  (352) 
expansion

>  <fragmenstein_error>  (352) 


$$$$
C37745-P53
     RDKit          3D

 38 40  0  0  0  0  0  0  0  0999 V2000
   -5.3075  -22.0422   28.3780 O   0  0  0  0  0  0  0  0  0  0  0  0
   -6.1630  -21.6023   27.6685 C   0  0  0  0  0  0  0  0  0  0  0  0
   -5.6852  -19.6361   27.1144 N   0  0  0  0  0  0  0  0  0  0  0  0
   -4.0490  -18.2393   27.7178 C   0  0  0  0  0  0  0  0  0  0  0  0
   -2.8397  -16.3178   27.5093 C   0  0  0  0  0  0  0  0  0  0  0  0
   -2.2626  -14.2991   27.0279 O   0  0  0  0  0  0  0  0  0  0  0  0
   -2.3897  -12.1797   27.1527 C   0  0  0  0  0  0  0  0  0  0  0  0
   -1.5611  -10.7189   28.3558 C   0  0  0  0  0  0  0  0  0  0  0  0
   -0.8770   -8.7730   28.1744 C   0  0  0  0  0  0  0  0  0  0  0  0
   -2.0855   -8.1407   26.6079 N   0  0  0  0  0  0  0  0  0  0  0  0
   -2.0421  -10.2302   26.2990 C   0  0  0  0  0  0  0  0  0  0  0  0
   -7.7708  -23.0667   27.5750 C   0  0  0  0  0  0  0  0  0  0  0  0
   -7.7730  -24.9393   26.8275 C   0  0  0  0  0  0  0  0  0  0  0  0
   -6.0635  -26.1584   27.2579 C   0  0  0  0  0  0  0  0  0  0  0  0
   -6.3353  -26.6432   29.1684 N   0  0  0  0  0  0  0  0  0  0  0  0
   -5.6613  -26.2822   30.2272 C   0  0  0  0  0  0  0  0  0  0  0  0
   -6.2224  -25.1284   30.8130 C   0  0  0  0  0  0  0  0  0  0  0  0
   -7.6134  -25.3413   30.9725 N   0  0  0  0  0  0  0  0  0  0  0  0
   -7.9568  -25.7472   29.8029 C   0  0  0  0  0  0  0  0  0  0  0  0
   -8.6156  -24.3131   28.5612 C   0  0  0  0  0  0  0  0  0  0  0  0
   -6.4636  -19.2607   26.5871 H   0  0  0  0  0  0  0  0  0  0  0  0
   -4.8613  -17.6167   27.6505 H   0  0  0  0  0  0  0  0  0  0  0  0
   -3.1132  -18.7347   27.3064 H   0  0  0  0  0  0  0  0  0  0  0  0
   -1.8010  -16.6486   27.5828 H   0  0  0  0  0  0  0  0  0  0  0  0
   -3.2459  -15.8678   28.3726 H   0  0  0  0  0  0  0  0  0  0  0  0
   -3.4550  -12.1307   27.3180 H   0  0  0  0  0  0  0  0  0  0  0  0
   -0.6345  -10.6158   27.8975 H   0  0  0  0  0  0  0  0  0  0  0  0
   -1.6783  -10.9189   29.4253 H   0  0  0  0  0  0  0  0  0  0  0  0
   -1.1643   -8.1555   29.0382 H   0  0  0  0  0  0  0  0  0  0  0  0
    0.1786   -8.8803   27.9594 H   0  0  0  0  0  0  0  0  0  0  0  0
   -1.5312   -7.3607   26.2866 H   0  0  0  0  0  0  0  0  0  0  0  0
   -2.5775  -11.2126   25.6460 H   0  0  0  0  0  0  0  0  0  0  0  0
   -1.8312   -9.9318   25.1932 H   0  0  0  0  0  0  0  0  0  0  0  0
   -8.4937  -24.7600   25.9562 H   0  0  0  0  0  0  0  0  0  0  0  0
   -5.5317  -27.0433   26.7883 H   0  0  0  0  0  0  0  0  0  0  0  0
   -4.9012  -26.8567   30.7117 H   0  0  0  0  0  0  0  0  0  0  0  0
   -5.6967  -24.4815   31.5225 H   0  0  0  0  0  0  0  0  0  0  0  0
   -9.5468  -24.6769   28.1138 H   0  0  0  0  0  0  0  0  0  0  0  0
  1  2  2  0
  2  3  1  0
  3  4  1  0
  4  5  1  0
  5  6  1  0
  6  7  1  0
  7  8  1  0
  8  9  1  0
  9 10  1  0
 10 11  1  0
  2 12  1  0
 12 13  1  0
 13 14  2  0
 14 15  1  0
 15 16  1  0
 16 17  2  0
 17 18  1  0
 18 19  2  0
 19 20  1  0
 11  7  1  0
 20 12  2  0
 19 15  1  0
  3 21  1  0
  4 22  1  0
  4 23  1  0
  5 24  1  0
  5 25  1  0
  7 26  1  0
  8 27  1  0
  8 28  1  0
  9 29  1  0
  9 30  1  0
 10 31  1  0
 11 32  1  0
 11 33  1  0
 13 34  1  0
 14 35  1  0
 16 36  1  0
 17 37  1  0
 20 38  1  0
M  END
>  <Energy>  (353) 
3135.7512122947783

>  <compound_id>  (353) 
37745

>  <target_id>  (353) 
1

>  <reference_id>  (353) 
53

>  <inspiration_ids>  (353) 
[53, 45]

>  <energy_score>  (353) 
3046.0828110684033

>  <distance_score>  (353) 
11.14569896320876

>  <path>  (353) 
/opt/xchem-fragalysis-2/maxwin/BulkDock/SCRATCH/511016/C37745-P53/C37745-P53.minimised.mol

>  <scratch_subdir>  (353) 
/opt/xchem-fragalysis-2/maxwin/BulkDock/SCRATCH/511016/C37745-P53

>  <fragmenstein_runtime>  (353) 
14.376258850097656

>  <fragmenstein_outcome>  (353) 
too moved

>  <fragmenstein_mode>  (353) 
expansion

>  <fragmenstein_error>  (353) 


$$$$
C37745-P45
     RDKit          3D

 38 40  0  0  0  0  0  0  0  0999 V2000
   -3.5777  -19.4603   22.7482 O   0  0  0  0  0  0  0  0  0  0  0  0
   -3.3498  -19.4558   23.9423 C   0  0  0  0  0  0  0  0  0  0  0  0
   -2.2289  -18.1412   24.7191 N   0  0  0  0  0  0  0  0  0  0  0  0
   -1.3472  -16.5271   23.9486 C   0  0  0  0  0  0  0  0  0  0  0  0
   -0.2833  -14.7217   24.3123 C   0  0  0  0  0  0  0  0  0  0  0  0
    1.0672  -13.7881   25.4936 O   0  0  0  0  0  0  0  0  0  0  0  0
    1.2092  -12.1798   26.5382 C   0  0  0  0  0  0  0  0  0  0  0  0
    0.4933  -10.6263   27.6190 C   0  0  0  0  0  0  0  0  0  0  0  0
    1.4904   -9.9452   28.3894 C   0  0  0  0  0  0  0  0  0  0  0  0
    2.6862  -10.6739   28.2218 N   0  0  0  0  0  0  0  0  0  0  0  0
    2.0562  -11.9870   27.9474 C   0  0  0  0  0  0  0  0  0  0  0  0
   -4.4680  -20.9026   24.8618 C   0  0  0  0  0  0  0  0  0  0  0  0
   -5.3212  -22.6488   24.4857 C   0  0  0  0  0  0  0  0  0  0  0  0
   -5.7406  -23.6095   25.3998 C   0  0  0  0  0  0  0  0  0  0  0  0
   -5.7219  -23.3919   26.7210 N   0  0  0  0  0  0  0  0  0  0  0  0
   -6.2253  -24.2363   27.6490 C   0  0  0  0  0  0  0  0  0  0  0  0
   -7.1151  -23.3788   28.2081 C   0  0  0  0  0  0  0  0  0  0  0  0
   -6.7558  -22.0803   27.9197 N   0  0  0  0  0  0  0  0  0  0  0  0
   -5.6634  -22.1121   27.1540 C   0  0  0  0  0  0  0  0  0  0  0  0
   -4.9606  -20.8945   26.1442 C   0  0  0  0  0  0  0  0  0  0  0  0
   -2.2339  -18.2600   25.7327 H   0  0  0  0  0  0  0  0  0  0  0  0
   -0.7837  -16.9905   23.1252 H   0  0  0  0  0  0  0  0  0  0  0  0
   -2.2440  -16.1027   23.4786 H   0  0  0  0  0  0  0  0  0  0  0  0
   -1.1054  -14.2304   24.8115 H   0  0  0  0  0  0  0  0  0  0  0  0
    0.0701  -14.3674   23.3412 H   0  0  0  0  0  0  0  0  0  0  0  0
    1.6041  -11.6882   25.6890 H   0  0  0  0  0  0  0  0  0  0  0  0
   -0.1938   -9.8923   27.1958 H   0  0  0  0  0  0  0  0  0  0  0  0
   -0.2710  -10.7413   28.3877 H   0  0  0  0  0  0  0  0  0  0  0  0
    1.1464  -10.0575   29.4298 H   0  0  0  0  0  0  0  0  0  0  0  0
    1.4461   -8.9543   27.9361 H   0  0  0  0  0  0  0  0  0  0  0  0
    3.1023  -10.3676   27.3513 H   0  0  0  0  0  0  0  0  0  0  0  0
    1.6147  -11.9847   28.9110 H   0  0  0  0  0  0  0  0  0  0  0  0
    2.7104  -12.8637   27.9688 H   0  0  0  0  0  0  0  0  0  0  0  0
   -5.6206  -22.9438   23.4381 H   0  0  0  0  0  0  0  0  0  0  0  0
   -6.0583  -24.5949   25.3473 H   0  0  0  0  0  0  0  0  0  0  0  0
   -6.2021  -25.3104   27.5464 H   0  0  0  0  0  0  0  0  0  0  0  0
   -8.0061  -23.6465   28.7434 H   0  0  0  0  0  0  0  0  0  0  0  0
   -5.4334  -19.9316   26.4207 H   0  0  0  0  0  0  0  0  0  0  0  0
  1  2  2  0
  2  3  1  0
  3  4  1  0
  4  5  1  0
  5  6  1  0
  6  7  1  0
  7  8  1  0
  8  9  1  0
  9 10  1  0
 10 11  1  0
  2 12  1  0
 12 13  1  0
 13 14  2  0
 14 15  1  0
 15 16  1  0
 16 17  2  0
 17 18  1  0
 18 19  2  0
 19 20  1  0
 11  7  1  0
 20 12  2  0
 19 15  1  0
  3 21  1  0
  4 22  1  0
  4 23  1  0
  5 24  1  0
  5 25  1  0
  7 26  1  0
  8 27  1  0
  8 28  1  0
  9 29  1  0
  9 30  1  0
 10 31  1  0
 11 32  1  0
 11 33  1  0
 13 34  1  0
 14 35  1  0
 16 36  1  0
 17 37  1  0
 20 38  1  0
M  END
>  <Energy>  (354) 
1038.3830308892204

>  <compound_id>  (354) 
37745

>  <target_id>  (354) 
1

>  <reference_id>  (354) 
45

>  <inspiration_ids>  (354) 
[53, 45]

>  <energy_score>  (354) 
948.7146296628728

>  <distance_score>  (354) 
11.765250998370032

>  <path>  (354) 
/opt/xchem-fragalysis-2/maxwin/BulkDock/SCRATCH/511016/C37745-P45/C37745-P45.minimised.mol

>  <scratch_subdir>  (354) 
/opt/xchem-fragalysis-2/maxwin/BulkDock/SCRATCH/511016/C37745-P45

>  <fragmenstein_runtime>  (354) 
15.282360315322876

>  <fragmenstein_outcome>  (354) 
too moved

>  <fragmenstein_mode>  (354) 
expansion

>  <fragmenstein_error>  (354) 


$$$$
C37748-P53
     RDKit          3D

 42 44  0  0  0  0  0  0  0  0999 V2000
   -4.1786  -20.4910   23.9577 O   0  0  0  0  0  0  0  0  0  0  0  0
   -3.0066  -20.3974   23.6987 C   0  0  0  0  0  0  0  0  0  0  0  0
   -2.0678  -18.9168   23.8578 N   0  0  0  0  0  0  0  0  0  0  0  0
   -2.5416  -17.2425   24.4235 C   0  0  0  0  0  0  0  0  0  0  0  0
   -2.2196  -16.1303   26.0241 C   0  0  0  0  0  0  0  0  0  0  0  0
   -2.2497  -14.2642   26.5124 N   0  0  0  0  0  0  0  0  0  0  0  0
   -3.1003  -12.8897   26.5343 C   0  0  0  0  0  0  0  0  0  0  0  0
   -2.9495  -12.0729   27.8467 C   0  0  0  0  0  0  0  0  0  0  0  0
   -1.9607  -11.4823   27.1116 C   0  0  0  0  0  0  0  0  0  0  0  0
   -2.1209  -10.3699   26.3377 O   0  0  0  0  0  0  0  0  0  0  0  0
   -1.4097  -13.1189   26.2164 C   0  0  0  0  0  0  0  0  0  0  0  0
   -2.0290  -21.9677   22.8889 C   0  0  0  0  0  0  0  0  0  0  0  0
   -0.9895  -21.5294   22.2959 O   0  0  0  0  0  0  0  0  0  0  0  0
   -2.7146  -24.1169   22.8054 N   0  0  0  0  0  0  0  0  0  0  0  0
   -2.0577  -25.4392   21.8354 C   0  0  0  0  0  0  0  0  0  0  0  0
   -0.6706  -26.0018   21.6831 C   0  0  0  0  0  0  0  0  0  0  0  0
   -0.4231  -26.9340   20.7414 C   0  0  0  0  0  0  0  0  0  0  0  0
   -1.4460  -27.3394   19.8955 N   0  0  0  0  0  0  0  0  0  0  0  0
   -1.5044  -28.3974   19.0334 C   0  0  0  0  0  0  0  0  0  0  0  0
   -2.7922  -28.4008   18.5448 C   0  0  0  0  0  0  0  0  0  0  0  0
   -3.5164  -27.3591   19.0504 N   0  0  0  0  0  0  0  0  0  0  0  0
   -2.6847  -26.7349   19.8485 C   0  0  0  0  0  0  0  0  0  0  0  0
   -2.9119  -25.6732   20.7439 C   0  0  0  0  0  0  0  0  0  0  0  0
   -1.1296  -19.0780   23.4976 H   0  0  0  0  0  0  0  0  0  0  0  0
   -3.5930  -17.1483   24.1328 H   0  0  0  0  0  0  0  0  0  0  0  0
   -1.9971  -16.6941   23.6446 H   0  0  0  0  0  0  0  0  0  0  0  0
   -2.6750  -16.6724   26.8779 H   0  0  0  0  0  0  0  0  0  0  0  0
   -1.2310  -16.5006   26.3635 H   0  0  0  0  0  0  0  0  0  0  0  0
   -4.0671  -12.6263   26.7885 H   0  0  0  0  0  0  0  0  0  0  0  0
   -3.1545  -12.3511   25.5640 H   0  0  0  0  0  0  0  0  0  0  0  0
   -3.8429  -11.7170   28.2972 H   0  0  0  0  0  0  0  0  0  0  0  0
   -2.5615  -12.5100   28.7399 H   0  0  0  0  0  0  0  0  0  0  0  0
   -1.3928  -10.9816   27.8933 H   0  0  0  0  0  0  0  0  0  0  0  0
   -1.8606  -10.5531   25.4085 H   0  0  0  0  0  0  0  0  0  0  0  0
   -1.4262  -12.9127   25.1682 H   0  0  0  0  0  0  0  0  0  0  0  0
   -0.4316  -13.3532   26.5099 H   0  0  0  0  0  0  0  0  0  0  0  0
   -3.6440  -24.2504   23.2932 H   0  0  0  0  0  0  0  0  0  0  0  0
    0.1169  -25.7698   22.3791 H   0  0  0  0  0  0  0  0  0  0  0  0
    0.5309  -27.4370   20.6446 H   0  0  0  0  0  0  0  0  0  0  0  0
   -0.6662  -29.0566   18.8626 H   0  0  0  0  0  0  0  0  0  0  0  0
   -3.2328  -29.1024   17.8471 H   0  0  0  0  0  0  0  0  0  0  0  0
   -3.8789  -25.1841   20.6673 H   0  0  0  0  0  0  0  0  0  0  0  0
  1  2  2  0
  2  3  1  0
  3  4  1  0
  4  5  1  0
  5  6  1  0
  6  7  1  0
  7  8  1  0
  8  9  1  0
  9 10  1  0
  9 11  1  0
  2 12  1  0
 12 13  2  0
 12 14  1  0
 14 15  1  0
 15 16  1  0
 16 17  2  0
 17 18  1  0
 18 19  1  0
 19 20  2  0
 20 21  1  0
 21 22  2  0
 22 23  1  0
 11  6  1  0
 23 15  2  0
 22 18  1  0
  3 24  1  0
  4 25  1  0
  4 26  1  0
  5 27  1  0
  5 28  1  0
  7 29  1  0
  7 30  1  0
  8 31  1  0
  8 32  1  0
  9 33  1  0
 10 34  1  0
 11 35  1  0
 11 36  1  0
 14 37  1  0
 16 38  1  0
 17 39  1  0
 19 40  1  0
 20 41  1  0
 23 42  1  0
M  END
>  <Energy>  (355) 
1058.3526392710182

>  <compound_id>  (355) 
37748

>  <target_id>  (355) 
1

>  <reference_id>  (355) 
53

>  <inspiration_ids>  (355) 
[53, 45]

>  <energy_score>  (355) 
910.3700448497221

>  <distance_score>  (355) 
13.56381330101823

>  <path>  (355) 
/opt/xchem-fragalysis-2/maxwin/BulkDock/SCRATCH/511016/C37748-P53/C37748-P53.minimised.mol

>  <scratch_subdir>  (355) 
/opt/xchem-fragalysis-2/maxwin/BulkDock/SCRATCH/511016/C37748-P53

>  <fragmenstein_runtime>  (355) 
28.812848567962646

>  <fragmenstein_outcome>  (355) 
too moved

>  <fragmenstein_mode>  (355) 
expansion

>  <fragmenstein_error>  (355) 


$$$$
C37748-P45
     RDKit          3D

 42 44  0  0  0  0  0  0  0  0999 V2000
   -6.3703  -11.5818   23.9195 O   0  0  0  0  0  0  0  0  0  0  0  0
   -5.3188  -12.1778   23.9643 C   0  0  0  0  0  0  0  0  0  0  0  0
   -3.6028  -11.4577   24.1882 N   0  0  0  0  0  0  0  0  0  0  0  0
   -2.9450   -9.5863   24.2268 C   0  0  0  0  0  0  0  0  0  0  0  0
   -1.8732   -8.3492   25.4934 C   0  0  0  0  0  0  0  0  0  0  0  0
   -1.7338   -6.9088   26.5122 N   0  0  0  0  0  0  0  0  0  0  0  0
   -1.2962   -7.1444   27.9843 C   0  0  0  0  0  0  0  0  0  0  0  0
   -0.3964   -6.0607   28.5565 C   0  0  0  0  0  0  0  0  0  0  0  0
   -0.2333   -5.1572   27.3973 C   0  0  0  0  0  0  0  0  0  0  0  0
    0.9994   -4.4538   27.5228 O   0  0  0  0  0  0  0  0  0  0  0  0
   -0.5120   -6.1738   26.1961 C   0  0  0  0  0  0  0  0  0  0  0  0
   -5.4565  -14.1280   23.5249 C   0  0  0  0  0  0  0  0  0  0  0  0
   -4.5350  -14.8459   23.8080 O   0  0  0  0  0  0  0  0  0  0  0  0
   -6.7236  -14.4950   22.7517 N   0  0  0  0  0  0  0  0  0  0  0  0
   -7.1803  -15.7209   22.2731 C   0  0  0  0  0  0  0  0  0  0  0  0
   -6.1664  -16.8024   22.1638 C   0  0  0  0  0  0  0  0  0  0  0  0
   -6.5130  -18.0740   21.9038 C   0  0  0  0  0  0  0  0  0  0  0  0
   -7.8554  -18.3808   21.7905 N   0  0  0  0  0  0  0  0  0  0  0  0
   -8.4556  -19.5926   21.5770 C   0  0  0  0  0  0  0  0  0  0  0  0
   -9.8029  -19.3520   21.7107 C   0  0  0  0  0  0  0  0  0  0  0  0
  -10.0476  -18.0183   21.9364 N   0  0  0  0  0  0  0  0  0  0  0  0
   -8.8657  -17.4338   21.9386 C   0  0  0  0  0  0  0  0  0  0  0  0
   -8.4835  -16.0569   22.1354 C   0  0  0  0  0  0  0  0  0  0  0  0
   -2.9511  -12.1680   24.2734 H   0  0  0  0  0  0  0  0  0  0  0  0
   -2.2194   -9.4230   23.4015 H   0  0  0  0  0  0  0  0  0  0  0  0
   -3.5318   -9.2050   23.3511 H   0  0  0  0  0  0  0  0  0  0  0  0
   -2.6863   -8.5551   26.0937 H   0  0  0  0  0  0  0  0  0  0  0  0
   -0.8706   -8.5314   25.8052 H   0  0  0  0  0  0  0  0  0  0  0  0
   -0.6814   -8.0535   28.0714 H   0  0  0  0  0  0  0  0  0  0  0  0
   -2.1645   -7.1941   28.6260 H   0  0  0  0  0  0  0  0  0  0  0  0
   -0.7546   -5.5306   29.4347 H   0  0  0  0  0  0  0  0  0  0  0  0
    0.5275   -6.5046   28.9107 H   0  0  0  0  0  0  0  0  0  0  0  0
   -0.9927   -4.4025   27.5122 H   0  0  0  0  0  0  0  0  0  0  0  0
    0.8248   -3.5010   27.3999 H   0  0  0  0  0  0  0  0  0  0  0  0
    0.2347   -6.9275   26.2787 H   0  0  0  0  0  0  0  0  0  0  0  0
   -0.5605   -5.8543   25.1615 H   0  0  0  0  0  0  0  0  0  0  0  0
   -7.2713  -13.6505   22.6014 H   0  0  0  0  0  0  0  0  0  0  0  0
   -5.1167  -16.5719   22.2891 H   0  0  0  0  0  0  0  0  0  0  0  0
   -5.7977  -18.8811   21.8137 H   0  0  0  0  0  0  0  0  0  0  0  0
   -7.8933  -20.4983   21.4040 H   0  0  0  0  0  0  0  0  0  0  0  0
  -10.6135  -20.0675   21.6562 H   0  0  0  0  0  0  0  0  0  0  0  0
   -9.2798  -15.3390   22.2909 H   0  0  0  0  0  0  0  0  0  0  0  0
  1  2  2  0
  2  3  1  0
  3  4  1  0
  4  5  1  0
  5  6  1  0
  6  7  1  0
  7  8  1  0
  8  9  1  0
  9 10  1  0
  9 11  1  0
  2 12  1  0
 12 13  2  0
 12 14  1  0
 14 15  1  0
 15 16  1  0
 16 17  2  0
 17 18  1  0
 18 19  1  0
 19 20  2  0
 20 21  1  0
 21 22  2  0
 22 23  1  0
 11  6  1  0
 23 15  2  0
 22 18  1  0
  3 24  1  0
  4 25  1  0
  4 26  1  0
  5 27  1  0
  5 28  1  0
  7 29  1  0
  7 30  1  0
  8 31  1  0
  8 32  1  0
  9 33  1  0
 10 34  1  0
 11 35  1  0
 11 36  1  0
 14 37  1  0
 16 38  1  0
 17 39  1  0
 19 40  1  0
 20 41  1  0
 23 42  1  0
M  END
>  <Energy>  (356) 
508.23142439753315

>  <compound_id>  (356) 
37748

>  <target_id>  (356) 
1

>  <reference_id>  (356) 
45

>  <inspiration_ids>  (356) 
[53, 45]

>  <energy_score>  (356) 
360.24882997622103

>  <distance_score>  (356) 
11.671033841766507

>  <path>  (356) 
/opt/xchem-fragalysis-2/maxwin/BulkDock/SCRATCH/511016/C37748-P45/C37748-P45.minimised.mol

>  <scratch_subdir>  (356) 
/opt/xchem-fragalysis-2/maxwin/BulkDock/SCRATCH/511016/C37748-P45

>  <fragmenstein_runtime>  (356) 
15.477432250976562

>  <fragmenstein_outcome>  (356) 
too moved

>  <fragmenstein_mode>  (356) 
expansion

>  <fragmenstein_error>  (356) 


$$$$
C37751-P53
     RDKit          3D

 38 40  0  0  0  0  0  0  0  0999 V2000
   -1.3979  -16.9412   27.4080 O   0  0  0  0  0  0  0  0  0  0  0  0
   -2.1325  -17.1843   26.4940 C   0  0  0  0  0  0  0  0  0  0  0  0
   -2.6424  -15.5579   25.4508 N   0  0  0  0  0  0  0  0  0  0  0  0
   -2.2534  -13.4828   25.7263 C   0  0  0  0  0  0  0  0  0  0  0  0
   -2.5083  -11.3736   25.0557 C   0  0  0  0  0  0  0  0  0  0  0  0
   -2.2936   -9.1766   24.8941 N   0  0  0  0  0  0  0  0  0  0  0  0
   -1.7023   -7.3077   24.1581 C   0  0  0  0  0  0  0  0  0  0  0  0
   -1.6812   -5.7116   24.5319 C   0  0  0  0  0  0  0  0  0  0  0  0
   -1.8549   -5.7789   26.0417 C   0  0  0  0  0  0  0  0  0  0  0  0
   -1.0378   -4.6149   27.1038 O   0  0  0  0  0  0  0  0  0  0  0  0
   -2.4995   -7.6759   26.2565 C   0  0  0  0  0  0  0  0  0  0  0  0
   -2.6668  -19.2716   26.5545 C   0  0  0  0  0  0  0  0  0  0  0  0
   -1.6237  -20.6145   27.8199 C   0  0  0  0  0  0  0  0  0  0  0  0
   -1.8216  -22.5564   27.6232 C   0  0  0  0  0  0  0  0  0  0  0  0
   -3.8408  -22.9539   27.4527 N   0  0  0  0  0  0  0  0  0  0  0  0
   -5.0135  -22.4599   28.5375 C   0  0  0  0  0  0  0  0  0  0  0  0
   -6.2184  -22.0296   27.8732 C   0  0  0  0  0  0  0  0  0  0  0  0
   -5.9643  -22.2685   26.5948 N   0  0  0  0  0  0  0  0  0  0  0  0
   -4.8781  -21.5892   26.5247 C   0  0  0  0  0  0  0  0  0  0  0  0
   -4.2538  -19.9661   25.7533 C   0  0  0  0  0  0  0  0  0  0  0  0
   -3.1927  -15.8567   24.6486 H   0  0  0  0  0  0  0  0  0  0  0  0
   -2.9303  -13.2991   26.5216 H   0  0  0  0  0  0  0  0  0  0  0  0
   -1.3443  -13.4542   26.2946 H   0  0  0  0  0  0  0  0  0  0  0  0
   -3.4290  -11.5326   24.4607 H   0  0  0  0  0  0  0  0  0  0  0  0
   -2.6426  -11.3262   26.1822 H   0  0  0  0  0  0  0  0  0  0  0  0
   -0.9567   -7.2198   23.3388 H   0  0  0  0  0  0  0  0  0  0  0  0
   -1.3742   -7.1942   25.0575 H   0  0  0  0  0  0  0  0  0  0  0  0
   -0.7632   -5.1936   24.2053 H   0  0  0  0  0  0  0  0  0  0  0  0
   -2.4392   -5.0648   23.9944 H   0  0  0  0  0  0  0  0  0  0  0  0
   -2.3208   -4.8761   25.9930 H   0  0  0  0  0  0  0  0  0  0  0  0
   -1.6793   -3.9550   27.4262 H   0  0  0  0  0  0  0  0  0  0  0  0
   -1.7924   -7.7787   27.0318 H   0  0  0  0  0  0  0  0  0  0  0  0
   -3.4055   -7.6650   26.8378 H   0  0  0  0  0  0  0  0  0  0  0  0
   -0.6563  -20.1681   28.1032 H   0  0  0  0  0  0  0  0  0  0  0  0
   -1.4711  -23.5462   27.7481 H   0  0  0  0  0  0  0  0  0  0  0  0
   -4.4974  -22.4293   29.4329 H   0  0  0  0  0  0  0  0  0  0  0  0
   -7.2516  -21.9956   28.1760 H   0  0  0  0  0  0  0  0  0  0  0  0
   -4.8243  -19.5973   24.8938 H   0  0  0  0  0  0  0  0  0  0  0  0
  1  2  2  0
  2  3  1  0
  3  4  1  0
  4  5  1  0
  5  6  1  0
  6  7  1  0
  7  8  1  0
  8  9  1  0
  9 10  1  0
  9 11  1  0
  2 12  1  0
 12 13  1  0
 13 14  2  0
 14 15  1  0
 15 16  1  0
 16 17  2  0
 17 18  1  0
 18 19  2  0
 19 20  1  0
 11  6  1  0
 20 12  2  0
 19 15  1  0
  3 21  1  0
  4 22  1  0
  4 23  1  0
  5 24  1  0
  5 25  1  0
  7 26  1  0
  7 27  1  0
  8 28  1  0
  8 29  1  0
  9 30  1  0
 10 31  1  0
 11 32  1  0
 11 33  1  0
 13 34  1  0
 14 35  1  0
 16 36  1  0
 17 37  1  0
 20 38  1  0
M  END
>  <Energy>  (357) 
2339.8029207008972

>  <compound_id>  (357) 
37751

>  <target_id>  (357) 
1

>  <reference_id>  (357) 
53

>  <inspiration_ids>  (357) 
[53, 45]

>  <energy_score>  (357) 
2254.5359492821035

>  <distance_score>  (357) 
10.555795694464164

>  <path>  (357) 
/opt/xchem-fragalysis-2/maxwin/BulkDock/SCRATCH/511016/C37751-P53/C37751-P53.minimised.mol

>  <scratch_subdir>  (357) 
/opt/xchem-fragalysis-2/maxwin/BulkDock/SCRATCH/511016/C37751-P53

>  <fragmenstein_runtime>  (357) 
23.890088319778442

>  <fragmenstein_outcome>  (357) 
too moved

>  <fragmenstein_mode>  (357) 
expansion

>  <fragmenstein_error>  (357) 


$$$$
C37751-P45
     RDKit          3D

 38 40  0  0  0  0  0  0  0  0999 V2000
    4.4644  -16.2500   27.2247 O   0  0  0  0  0  0  0  0  0  0  0  0
    4.1386  -16.4094   28.3667 C   0  0  0  0  0  0  0  0  0  0  0  0
    4.5005  -15.6803   29.5591 N   0  0  0  0  0  0  0  0  0  0  0  0
    5.4730  -14.5557   29.7700 C   0  0  0  0  0  0  0  0  0  0  0  0
    5.3343  -13.2160   28.9377 C   0  0  0  0  0  0  0  0  0  0  0  0
    6.1373  -12.0169   29.3931 N   0  0  0  0  0  0  0  0  0  0  0  0
    5.5738  -11.3069   30.5611 C   0  0  0  0  0  0  0  0  0  0  0  0
    6.0248   -9.8547   30.4002 C   0  0  0  0  0  0  0  0  0  0  0  0
    5.8234   -9.6612   28.9134 C   0  0  0  0  0  0  0  0  0  0  0  0
    6.3292   -8.4132   28.4487 O   0  0  0  0  0  0  0  0  0  0  0  0
    6.4330  -10.9663   28.3740 C   0  0  0  0  0  0  0  0  0  0  0  0
    3.2101  -17.6579   28.6442 C   0  0  0  0  0  0  0  0  0  0  0  0
    3.5763  -18.9360   27.9844 C   0  0  0  0  0  0  0  0  0  0  0  0
    2.8082  -20.0355   28.1137 C   0  0  0  0  0  0  0  0  0  0  0  0
    1.6334  -19.9608   28.8484 N   0  0  0  0  0  0  0  0  0  0  0  0
    0.7112  -20.9330   29.1267 C   0  0  0  0  0  0  0  0  0  0  0  0
   -0.2933  -20.2934   29.8072 C   0  0  0  0  0  0  0  0  0  0  0  0
    0.0072  -18.9668   30.0126 N   0  0  0  0  0  0  0  0  0  0  0  0
    1.1860  -18.7840   29.4413 C   0  0  0  0  0  0  0  0  0  0  0  0
    2.0347  -17.6198   29.3284 C   0  0  0  0  0  0  0  0  0  0  0  0
    4.1017  -16.1470   30.3655 H   0  0  0  0  0  0  0  0  0  0  0  0
    6.4690  -14.9761   29.5926 H   0  0  0  0  0  0  0  0  0  0  0  0
    5.3966  -14.3139   30.8357 H   0  0  0  0  0  0  0  0  0  0  0  0
    4.2763  -12.9488   28.8978 H   0  0  0  0  0  0  0  0  0  0  0  0
    5.6481  -13.4683   27.9181 H   0  0  0  0  0  0  0  0  0  0  0  0
    4.4776  -11.3477   30.5600 H   0  0  0  0  0  0  0  0  0  0  0  0
    5.9379  -11.7398   31.4974 H   0  0  0  0  0  0  0  0  0  0  0  0
    5.4650   -9.1638   31.0294 H   0  0  0  0  0  0  0  0  0  0  0  0
    7.0830   -9.7347   30.6668 H   0  0  0  0  0  0  0  0  0  0  0  0
    4.7583   -9.6963   28.6839 H   0  0  0  0  0  0  0  0  0  0  0  0
    7.3035   -8.4659   28.4906 H   0  0  0  0  0  0  0  0  0  0  0  0
    7.5222  -10.8598   28.2962 H   0  0  0  0  0  0  0  0  0  0  0  0
    6.0866  -11.2068   27.3707 H   0  0  0  0  0  0  0  0  0  0  0  0
    4.4878  -18.9508   27.3924 H   0  0  0  0  0  0  0  0  0  0  0  0
    3.0499  -20.9862   27.6552 H   0  0  0  0  0  0  0  0  0  0  0  0
    0.8094  -21.9531   28.7807 H   0  0  0  0  0  0  0  0  0  0  0  0
   -1.2152  -20.7340   30.1510 H   0  0  0  0  0  0  0  0  0  0  0  0
    1.6769  -16.7125   29.7927 H   0  0  0  0  0  0  0  0  0  0  0  0
  1  2  2  0
  2  3  1  0
  3  4  1  0
  4  5  1  0
  5  6  1  0
  6  7  1  0
  7  8  1  0
  8  9  1  0
  9 10  1  0
  9 11  1  0
  2 12  1  0
 12 13  1  0
 13 14  2  0
 14 15  1  0
 15 16  1  0
 16 17  2  0
 17 18  1  0
 18 19  2  0
 19 20  1  0
 11  6  1  0
 20 12  2  0
 19 15  1  0
  3 21  1  0
  4 22  1  0
  4 23  1  0
  5 24  1  0
  5 25  1  0
  7 26  1  0
  7 27  1  0
  8 28  1  0
  8 29  1  0
  9 30  1  0
 10 31  1  0
 11 32  1  0
 11 33  1  0
 13 34  1  0
 14 35  1  0
 16 36  1  0
 17 37  1  0
 20 38  1  0
M  END
>  <Energy>  (358) 
73.343641371036242

>  <compound_id>  (358) 
37751

>  <target_id>  (358) 
1

>  <reference_id>  (358) 
45

>  <inspiration_ids>  (358) 
[53, 45]

>  <energy_score>  (358) 
-11.923330047765717

>  <distance_score>  (358) 
14.342888430558551

>  <path>  (358) 
/opt/xchem-fragalysis-2/maxwin/BulkDock/SCRATCH/511016/C37751-P45/C37751-P45.minimised.mol

>  <scratch_subdir>  (358) 
/opt/xchem-fragalysis-2/maxwin/BulkDock/SCRATCH/511016/C37751-P45

>  <fragmenstein_runtime>  (358) 
18.081679821014404

>  <fragmenstein_outcome>  (358) 
too moved

>  <fragmenstein_mode>  (358) 
expansion

>  <fragmenstein_error>  (358) 


$$$$
C37748-P53
     RDKit          3D

 42 44  0  0  0  0  0  0  0  0999 V2000
   -4.1786  -20.4910   23.9577 O   0  0  0  0  0  0  0  0  0  0  0  0
   -3.0066  -20.3974   23.6987 C   0  0  0  0  0  0  0  0  0  0  0  0
   -2.0678  -18.9168   23.8578 N   0  0  0  0  0  0  0  0  0  0  0  0
   -2.5416  -17.2425   24.4235 C   0  0  0  0  0  0  0  0  0  0  0  0
   -2.2196  -16.1303   26.0241 C   0  0  0  0  0  0  0  0  0  0  0  0
   -2.2497  -14.2642   26.5124 N   0  0  0  0  0  0  0  0  0  0  0  0
   -3.1003  -12.8897   26.5343 C   0  0  0  0  0  0  0  0  0  0  0  0
   -2.9495  -12.0729   27.8467 C   0  0  0  0  0  0  0  0  0  0  0  0
   -1.9607  -11.4823   27.1116 C   0  0  0  0  0  0  0  0  0  0  0  0
   -2.1209  -10.3699   26.3377 O   0  0  0  0  0  0  0  0  0  0  0  0
   -1.4097  -13.1189   26.2164 C   0  0  0  0  0  0  0  0  0  0  0  0
   -2.0290  -21.9677   22.8889 C   0  0  0  0  0  0  0  0  0  0  0  0
   -0.9895  -21.5294   22.2959 O   0  0  0  0  0  0  0  0  0  0  0  0
   -2.7146  -24.1169   22.8054 N   0  0  0  0  0  0  0  0  0  0  0  0
   -2.0577  -25.4392   21.8354 C   0  0  0  0  0  0  0  0  0  0  0  0
   -0.6706  -26.0018   21.6831 C   0  0  0  0  0  0  0  0  0  0  0  0
   -0.4231  -26.9340   20.7414 C   0  0  0  0  0  0  0  0  0  0  0  0
   -1.4460  -27.3394   19.8955 N   0  0  0  0  0  0  0  0  0  0  0  0
   -1.5044  -28.3974   19.0334 C   0  0  0  0  0  0  0  0  0  0  0  0
   -2.7922  -28.4008   18.5448 C   0  0  0  0  0  0  0  0  0  0  0  0
   -3.5164  -27.3591   19.0504 N   0  0  0  0  0  0  0  0  0  0  0  0
   -2.6847  -26.7349   19.8485 C   0  0  0  0  0  0  0  0  0  0  0  0
   -2.9119  -25.6732   20.7439 C   0  0  0  0  0  0  0  0  0  0  0  0
   -1.1296  -19.0780   23.4976 H   0  0  0  0  0  0  0  0  0  0  0  0
   -3.5930  -17.1483   24.1328 H   0  0  0  0  0  0  0  0  0  0  0  0
   -1.9971  -16.6941   23.6446 H   0  0  0  0  0  0  0  0  0  0  0  0
   -2.6750  -16.6724   26.8779 H   0  0  0  0  0  0  0  0  0  0  0  0
   -1.2310  -16.5006   26.3635 H   0  0  0  0  0  0  0  0  0  0  0  0
   -4.0671  -12.6263   26.7885 H   0  0  0  0  0  0  0  0  0  0  0  0
   -3.1545  -12.3511   25.5640 H   0  0  0  0  0  0  0  0  0  0  0  0
   -3.8429  -11.7170   28.2972 H   0  0  0  0  0  0  0  0  0  0  0  0
   -2.5615  -12.5100   28.7399 H   0  0  0  0  0  0  0  0  0  0  0  0
   -1.3928  -10.9816   27.8933 H   0  0  0  0  0  0  0  0  0  0  0  0
   -1.8606  -10.5531   25.4085 H   0  0  0  0  0  0  0  0  0  0  0  0
   -1.4262  -12.9127   25.1682 H   0  0  0  0  0  0  0  0  0  0  0  0
   -0.4316  -13.3532   26.5099 H   0  0  0  0  0  0  0  0  0  0  0  0
   -3.6440  -24.2504   23.2932 H   0  0  0  0  0  0  0  0  0  0  0  0
    0.1169  -25.7698   22.3791 H   0  0  0  0  0  0  0  0  0  0  0  0
    0.5309  -27.4370   20.6446 H   0  0  0  0  0  0  0  0  0  0  0  0
   -0.6662  -29.0566   18.8626 H   0  0  0  0  0  0  0  0  0  0  0  0
   -3.2328  -29.1024   17.8471 H   0  0  0  0  0  0  0  0  0  0  0  0
   -3.8789  -25.1841   20.6673 H   0  0  0  0  0  0  0  0  0  0  0  0
  1  2  2  0
  2  3  1  0
  3  4  1  0
  4  5  1  0
  5  6  1  0
  6  7  1  0
  7  8  1  0
  8  9  1  0
  9 10  1  0
  9 11  1  0
  2 12  1  0
 12 13  2  0
 12 14  1  0
 14 15  1  0
 15 16  1  0
 16 17  2  0
 17 18  1  0
 18 19  1  0
 19 20  2  0
 20 21  1  0
 21 22  2  0
 22 23  1  0
 11  6  1  0
 23 15  2  0
 22 18  1  0
  3 24  1  0
  4 25  1  0
  4 26  1  0
  5 27  1  0
  5 28  1  0
  7 29  1  0
  7 30  1  0
  8 31  1  0
  8 32  1  0
  9 33  1  0
 10 34  1  0
 11 35  1  0
 11 36  1  0
 14 37  1  0
 16 38  1  0
 17 39  1  0
 19 40  1  0
 20 41  1  0
 23 42  1  0
M  END
>  <Energy>  (359) 
1058.3526392710182

>  <compound_id>  (359) 
37748

>  <target_id>  (359) 
1

>  <reference_id>  (359) 
53

>  <inspiration_ids>  (359) 
[53, 45]

>  <energy_score>  (359) 
910.3700448497221

>  <distance_score>  (359) 
13.56381330101823

>  <path>  (359) 
/opt/xchem-fragalysis-2/maxwin/BulkDock/SCRATCH/511016/C37748-P53/C37748-P53.minimised.mol

>  <scratch_subdir>  (359) 
/opt/xchem-fragalysis-2/maxwin/BulkDock/SCRATCH/511016/C37748-P53

>  <fragmenstein_runtime>  (359) 
31.145087718963623

>  <fragmenstein_outcome>  (359) 
too moved

>  <fragmenstein_mode>  (359) 
expansion

>  <fragmenstein_error>  (359) 


$$$$
C37748-P45
     RDKit          3D

 42 44  0  0  0  0  0  0  0  0999 V2000
   -6.3703  -11.5818   23.9195 O   0  0  0  0  0  0  0  0  0  0  0  0
   -5.3188  -12.1778   23.9643 C   0  0  0  0  0  0  0  0  0  0  0  0
   -3.6028  -11.4577   24.1882 N   0  0  0  0  0  0  0  0  0  0  0  0
   -2.9450   -9.5863   24.2268 C   0  0  0  0  0  0  0  0  0  0  0  0
   -1.8732   -8.3492   25.4934 C   0  0  0  0  0  0  0  0  0  0  0  0
   -1.7338   -6.9088   26.5122 N   0  0  0  0  0  0  0  0  0  0  0  0
   -1.2962   -7.1444   27.9843 C   0  0  0  0  0  0  0  0  0  0  0  0
   -0.3964   -6.0607   28.5565 C   0  0  0  0  0  0  0  0  0  0  0  0
   -0.2333   -5.1572   27.3973 C   0  0  0  0  0  0  0  0  0  0  0  0
    0.9994   -4.4538   27.5228 O   0  0  0  0  0  0  0  0  0  0  0  0
   -0.5120   -6.1738   26.1961 C   0  0  0  0  0  0  0  0  0  0  0  0
   -5.4565  -14.1280   23.5249 C   0  0  0  0  0  0  0  0  0  0  0  0
   -4.5350  -14.8459   23.8080 O   0  0  0  0  0  0  0  0  0  0  0  0
   -6.7236  -14.4950   22.7517 N   0  0  0  0  0  0  0  0  0  0  0  0
   -7.1803  -15.7209   22.2731 C   0  0  0  0  0  0  0  0  0  0  0  0
   -6.1664  -16.8024   22.1638 C   0  0  0  0  0  0  0  0  0  0  0  0
   -6.5130  -18.0740   21.9038 C   0  0  0  0  0  0  0  0  0  0  0  0
   -7.8554  -18.3808   21.7905 N   0  0  0  0  0  0  0  0  0  0  0  0
   -8.4556  -19.5926   21.5770 C   0  0  0  0  0  0  0  0  0  0  0  0
   -9.8029  -19.3520   21.7107 C   0  0  0  0  0  0  0  0  0  0  0  0
  -10.0476  -18.0183   21.9364 N   0  0  0  0  0  0  0  0  0  0  0  0
   -8.8657  -17.4338   21.9386 C   0  0  0  0  0  0  0  0  0  0  0  0
   -8.4835  -16.0569   22.1354 C   0  0  0  0  0  0  0  0  0  0  0  0
   -2.9511  -12.1680   24.2734 H   0  0  0  0  0  0  0  0  0  0  0  0
   -2.2194   -9.4230   23.4015 H   0  0  0  0  0  0  0  0  0  0  0  0
   -3.5318   -9.2050   23.3511 H   0  0  0  0  0  0  0  0  0  0  0  0
   -2.6863   -8.5551   26.0937 H   0  0  0  0  0  0  0  0  0  0  0  0
   -0.8706   -8.5314   25.8052 H   0  0  0  0  0  0  0  0  0  0  0  0
   -0.6814   -8.0535   28.0714 H   0  0  0  0  0  0  0  0  0  0  0  0
   -2.1645   -7.1941   28.6260 H   0  0  0  0  0  0  0  0  0  0  0  0
   -0.7546   -5.5306   29.4347 H   0  0  0  0  0  0  0  0  0  0  0  0
    0.5275   -6.5046   28.9107 H   0  0  0  0  0  0  0  0  0  0  0  0
   -0.9927   -4.4025   27.5122 H   0  0  0  0  0  0  0  0  0  0  0  0
    0.8248   -3.5010   27.3999 H   0  0  0  0  0  0  0  0  0  0  0  0
    0.2347   -6.9275   26.2787 H   0  0  0  0  0  0  0  0  0  0  0  0
   -0.5605   -5.8543   25.1615 H   0  0  0  0  0  0  0  0  0  0  0  0
   -7.2713  -13.6505   22.6014 H   0  0  0  0  0  0  0  0  0  0  0  0
   -5.1167  -16.5719   22.2891 H   0  0  0  0  0  0  0  0  0  0  0  0
   -5.7977  -18.8811   21.8137 H   0  0  0  0  0  0  0  0  0  0  0  0
   -7.8933  -20.4983   21.4040 H   0  0  0  0  0  0  0  0  0  0  0  0
  -10.6135  -20.0675   21.6562 H   0  0  0  0  0  0  0  0  0  0  0  0
   -9.2798  -15.3390   22.2909 H   0  0  0  0  0  0  0  0  0  0  0  0
  1  2  2  0
  2  3  1  0
  3  4  1  0
  4  5  1  0
  5  6  1  0
  6  7  1  0
  7  8  1  0
  8  9  1  0
  9 10  1  0
  9 11  1  0
  2 12  1  0
 12 13  2  0
 12 14  1  0
 14 15  1  0
 15 16  1  0
 16 17  2  0
 17 18  1  0
 18 19  1  0
 19 20  2  0
 20 21  1  0
 21 22  2  0
 22 23  1  0
 11  6  1  0
 23 15  2  0
 22 18  1  0
  3 24  1  0
  4 25  1  0
  4 26  1  0
  5 27  1  0
  5 28  1  0
  7 29  1  0
  7 30  1  0
  8 31  1  0
  8 32  1  0
  9 33  1  0
 10 34  1  0
 11 35  1  0
 11 36  1  0
 14 37  1  0
 16 38  1  0
 17 39  1  0
 19 40  1  0
 20 41  1  0
 23 42  1  0
M  END
>  <Energy>  (360) 
508.23142439753315

>  <compound_id>  (360) 
37748

>  <target_id>  (360) 
1

>  <reference_id>  (360) 
45

>  <inspiration_ids>  (360) 
[53, 45]

>  <energy_score>  (360) 
360.24882997622103

>  <distance_score>  (360) 
11.671033841766507

>  <path>  (360) 
/opt/xchem-fragalysis-2/maxwin/BulkDock/SCRATCH/511016/C37748-P45/C37748-P45.minimised.mol

>  <scratch_subdir>  (360) 
/opt/xchem-fragalysis-2/maxwin/BulkDock/SCRATCH/511016/C37748-P45

>  <fragmenstein_runtime>  (360) 
18.435136318206787

>  <fragmenstein_outcome>  (360) 
too moved

>  <fragmenstein_mode>  (360) 
expansion

>  <fragmenstein_error>  (360) 


$$$$
C37757-P53
     RDKit          3D

 43 46  0  0  0  0  0  0  0  0999 V2000
   -6.3058  -21.7861   28.4907 O   0  0  0  0  0  0  0  0  0  0  0  0
   -5.6119  -21.4119   27.6252 C   0  0  0  0  0  0  0  0  0  0  0  0
   -4.4053  -22.9894   27.1118 C   0  0  0  0  0  0  0  0  0  0  0  0
   -4.1186  -24.4622   25.6176 C   0  0  0  0  0  0  0  0  0  0  0  0
   -4.6939  -24.4151   24.0816 C   0  0  0  0  0  0  0  0  0  0  0  0
   -5.8799  -23.2615   24.0475 N   0  0  0  0  0  0  0  0  0  0  0  0
   -6.1643  -21.9648   23.1373 C   0  0  0  0  0  0  0  0  0  0  0  0
   -5.1579  -21.1846   24.3049 C   0  0  0  0  0  0  0  0  0  0  0  0
   -5.2425  -21.5154   25.5582 N   0  0  0  0  0  0  0  0  0  0  0  0
   -5.8261  -22.8105   25.7280 C   0  0  0  0  0  0  0  0  0  0  0  0
   -4.5945  -24.1312   26.6455 C   0  0  0  0  0  0  0  0  0  0  0  0
   -5.6180  -19.3726   27.1800 N   0  0  0  0  0  0  0  0  0  0  0  0
   -4.5282  -17.9114   27.8223 C   0  0  0  0  0  0  0  0  0  0  0  0
   -4.5095  -16.2591   28.9930 C   0  0  0  0  0  0  0  0  0  0  0  0
   -5.2985  -15.6462   30.4718 N   0  0  0  0  0  0  0  0  0  0  0  0
   -6.3487  -14.0845   30.8289 C   0  0  0  0  0  0  0  0  0  0  0  0
   -6.7394  -14.4835   32.2518 C   0  0  0  0  0  0  0  0  0  0  0  0
   -7.2492  -13.5264   33.4288 C   0  0  0  0  0  0  0  0  0  0  0  0
   -6.3611  -12.4282   33.3048 N   0  0  0  0  0  0  0  0  0  0  0  0
   -6.4890  -12.3817   31.8628 C   0  0  0  0  0  0  0  0  0  0  0  0
   -6.0442  -17.1883   29.8642 C   0  0  0  0  0  0  0  0  0  0  0  0
   -6.5695  -17.7925   28.1664 C   0  0  0  0  0  0  0  0  0  0  0  0
   -3.3082  -25.2635   25.7623 H   0  0  0  0  0  0  0  0  0  0  0  0
   -4.6764  -24.9131   23.1496 H   0  0  0  0  0  0  0  0  0  0  0  0
   -6.0394  -22.0583   22.0611 H   0  0  0  0  0  0  0  0  0  0  0  0
   -4.1215  -20.8459   24.1344 H   0  0  0  0  0  0  0  0  0  0  0  0
   -4.4343  -24.7057   27.6414 H   0  0  0  0  0  0  0  0  0  0  0  0
   -3.5014  -18.3341   27.8278 H   0  0  0  0  0  0  0  0  0  0  0  0
   -4.0661  -17.0945   27.2255 H   0  0  0  0  0  0  0  0  0  0  0  0
   -3.5711  -15.8095   28.6249 H   0  0  0  0  0  0  0  0  0  0  0  0
   -5.5287  -15.6900   28.8925 H   0  0  0  0  0  0  0  0  0  0  0  0
   -5.5543  -13.6253   30.2836 H   0  0  0  0  0  0  0  0  0  0  0  0
   -5.7546  -14.7828   32.5102 H   0  0  0  0  0  0  0  0  0  0  0  0
   -7.4777  -15.2750   32.2960 H   0  0  0  0  0  0  0  0  0  0  0  0
   -7.1819  -13.8930   34.4561 H   0  0  0  0  0  0  0  0  0  0  0  0
   -8.3112  -13.2684   33.3269 H   0  0  0  0  0  0  0  0  0  0  0  0
   -6.7449  -11.5963   33.7519 H   0  0  0  0  0  0  0  0  0  0  0  0
   -6.0971  -11.4198   31.4837 H   0  0  0  0  0  0  0  0  0  0  0  0
   -7.4461  -11.8625   31.8825 H   0  0  0  0  0  0  0  0  0  0  0  0
   -6.5761  -17.8349   30.6221 H   0  0  0  0  0  0  0  0  0  0  0  0
   -5.1398  -17.2279   30.0708 H   0  0  0  0  0  0  0  0  0  0  0  0
   -7.7696  -18.0735   28.2276 H   0  0  0  0  0  0  0  0  0  0  0  0
   -7.1424  -16.9063   27.7651 H   0  0  0  0  0  0  0  0  0  0  0  0
  1  2  2  0
  2  3  1  0
  3  4  1  0
  4  5  2  0
  5  6  1  0
  6  7  1  0
  7  8  2  0
  8  9  1  0
  9 10  2  0
 10 11  1  0
  2 12  1  0
 12 13  1  0
 13 14  1  0
 14 15  1  0
 15 16  1  0
 16 17  1  0
 17 18  1  0
 18 19  1  0
 19 20  1  0
 15 21  1  0
 21 22  1  0
 11  3  2  0
 22 12  1  0
 10  6  1  0
 20 16  1  0
  4 23  1  0
  5 24  1  0
  7 25  1  0
  8 26  1  0
 11 27  1  0
 13 28  1  0
 13 29  1  0
 14 30  1  0
 14 31  1  0
 16 32  1  0
 17 33  1  0
 17 34  1  0
 18 35  1  0
 18 36  1  0
 19 37  1  0
 20 38  1  0
 20 39  1  0
 21 40  1  0
 21 41  1  0
 22 42  1  0
 22 43  1  0
M  END
>  <Energy>  (361) 
2249.1305670108791

>  <compound_id>  (361) 
37757

>  <target_id>  (361) 
1

>  <reference_id>  (361) 
53

>  <inspiration_ids>  (361) 
[53, 45]

>  <energy_score>  (361) 
2108.1791106393766

>  <distance_score>  (361) 
11.447398749675374

>  <path>  (361) 
/opt/xchem-fragalysis-2/maxwin/BulkDock/SCRATCH/511016/C37757-P53/C37757-P53.minimised.mol

>  <scratch_subdir>  (361) 
/opt/xchem-fragalysis-2/maxwin/BulkDock/SCRATCH/511016/C37757-P53

>  <fragmenstein_runtime>  (361) 
25.536743640899658

>  <fragmenstein_outcome>  (361) 
too moved

>  <fragmenstein_mode>  (361) 
expansion

>  <fragmenstein_error>  (361) 


$$$$
C37757-P45
     RDKit          3D

 43 46  0  0  0  0  0  0  0  0999 V2000
   -5.9968  -17.9093   27.7804 O   0  0  0  0  0  0  0  0  0  0  0  0
   -5.2885  -17.9844   26.9043 C   0  0  0  0  0  0  0  0  0  0  0  0
   -5.2460  -20.0771   26.4500 C   0  0  0  0  0  0  0  0  0  0  0  0
   -6.7219  -20.9673   27.4469 C   0  0  0  0  0  0  0  0  0  0  0  0
   -7.3389  -22.2001   27.6941 C   0  0  0  0  0  0  0  0  0  0  0  0
   -6.8780  -23.3378   27.2154 N   0  0  0  0  0  0  0  0  0  0  0  0
   -7.2442  -24.6363   27.3130 C   0  0  0  0  0  0  0  0  0  0  0  0
   -6.1658  -25.2937   26.7877 C   0  0  0  0  0  0  0  0  0  0  0  0
   -5.2487  -24.3804   26.3340 N   0  0  0  0  0  0  0  0  0  0  0  0
   -5.7644  -23.1717   26.5220 C   0  0  0  0  0  0  0  0  0  0  0  0
   -5.0858  -21.6652   26.7489 C   0  0  0  0  0  0  0  0  0  0  0  0
   -4.7238  -16.0307   25.8590 N   0  0  0  0  0  0  0  0  0  0  0  0
   -2.9732  -14.5742   26.2588 C   0  0  0  0  0  0  0  0  0  0  0  0
   -3.6523  -12.6159   26.9553 C   0  0  0  0  0  0  0  0  0  0  0  0
   -5.4930  -11.7576   27.2685 N   0  0  0  0  0  0  0  0  0  0  0  0
   -6.1703   -9.7773   27.1995 C   0  0  0  0  0  0  0  0  0  0  0  0
   -7.1503   -9.0639   28.6382 C   0  0  0  0  0  0  0  0  0  0  0  0
   -7.0251   -7.5808   28.9513 C   0  0  0  0  0  0  0  0  0  0  0  0
   -5.6779   -7.2666   28.6080 N   0  0  0  0  0  0  0  0  0  0  0  0
   -5.5350   -7.9962   27.3495 C   0  0  0  0  0  0  0  0  0  0  0  0
   -6.3687  -12.5610   26.3372 C   0  0  0  0  0  0  0  0  0  0  0  0
   -5.9441  -14.1962   26.5287 C   0  0  0  0  0  0  0  0  0  0  0  0
   -7.5626  -20.4215   27.7550 H   0  0  0  0  0  0  0  0  0  0  0  0
   -8.2808  -22.3625   28.1877 H   0  0  0  0  0  0  0  0  0  0  0  0
   -8.1579  -24.9746   27.7778 H   0  0  0  0  0  0  0  0  0  0  0  0
   -5.9900  -26.3597   26.7028 H   0  0  0  0  0  0  0  0  0  0  0  0
   -5.0171  -21.9918   27.8193 H   0  0  0  0  0  0  0  0  0  0  0  0
   -2.2645  -14.6353   25.3990 H   0  0  0  0  0  0  0  0  0  0  0  0
   -2.2791  -14.9075   27.1221 H   0  0  0  0  0  0  0  0  0  0  0  0
   -3.1827  -12.0744   26.1318 H   0  0  0  0  0  0  0  0  0  0  0  0
   -3.4155  -12.2894   27.9842 H   0  0  0  0  0  0  0  0  0  0  0  0
   -7.0161   -9.8758   26.4489 H   0  0  0  0  0  0  0  0  0  0  0  0
   -6.8809   -9.5982   29.5555 H   0  0  0  0  0  0  0  0  0  0  0  0
   -8.2188   -9.1710   28.4193 H   0  0  0  0  0  0  0  0  0  0  0  0
   -7.7251   -6.9641   28.3819 H   0  0  0  0  0  0  0  0  0  0  0  0
   -7.2298   -7.3834   30.0092 H   0  0  0  0  0  0  0  0  0  0  0  0
   -5.0745   -7.6938   29.3026 H   0  0  0  0  0  0  0  0  0  0  0  0
   -4.5238   -7.7974   27.0017 H   0  0  0  0  0  0  0  0  0  0  0  0
   -6.1536   -7.4047   26.6535 H   0  0  0  0  0  0  0  0  0  0  0  0
   -7.3490  -12.5875   26.7496 H   0  0  0  0  0  0  0  0  0  0  0  0
   -6.3019  -12.1664   25.3249 H   0  0  0  0  0  0  0  0  0  0  0  0
   -6.9132  -14.5419   25.9677 H   0  0  0  0  0  0  0  0  0  0  0  0
   -6.4134  -14.1408   27.6096 H   0  0  0  0  0  0  0  0  0  0  0  0
  1  2  2  0
  2  3  1  0
  3  4  1  0
  4  5  2  0
  5  6  1  0
  6  7  1  0
  7  8  2  0
  8  9  1  0
  9 10  2  0
 10 11  1  0
  2 12  1  0
 12 13  1  0
 13 14  1  0
 14 15  1  0
 15 16  1  0
 16 17  1  0
 17 18  1  0
 18 19  1  0
 19 20  1  0
 15 21  1  0
 21 22  1  0
 11  3  2  0
 22 12  1  0
 10  6  1  0
 20 16  1  0
  4 23  1  0
  5 24  1  0
  7 25  1  0
  8 26  1  0
 11 27  1  0
 13 28  1  0
 13 29  1  0
 14 30  1  0
 14 31  1  0
 16 32  1  0
 17 33  1  0
 17 34  1  0
 18 35  1  0
 18 36  1  0
 19 37  1  0
 20 38  1  0
 20 39  1  0
 21 40  1  0
 21 41  1  0
 22 42  1  0
 22 43  1  0
M  END
>  <Energy>  (362) 
2117.0814442875048

>  <compound_id>  (362) 
37757

>  <target_id>  (362) 
1

>  <reference_id>  (362) 
45

>  <inspiration_ids>  (362) 
[53, 45]

>  <energy_score>  (362) 
1976.1299879160342

>  <distance_score>  (362) 
9.26808846840789

>  <path>  (362) 
/opt/xchem-fragalysis-2/maxwin/BulkDock/SCRATCH/511016/C37757-P45/C37757-P45.minimised.mol

>  <scratch_subdir>  (362) 
/opt/xchem-fragalysis-2/maxwin/BulkDock/SCRATCH/511016/C37757-P45

>  <fragmenstein_runtime>  (362) 
20.309298992156982

>  <fragmenstein_outcome>  (362) 
too moved

>  <fragmenstein_mode>  (362) 
expansion

>  <fragmenstein_error>  (362) 


$$$$
C37758-P53
     RDKit          3D

 51 53  0  0  0  0  0  0  0  0999 V2000
   -7.7852   -6.1470   31.2427 C   0  0  0  0  0  0  0  0  0  0  0  0
   -8.0172   -6.9905   32.4912 C   0  0  0  0  0  0  0  0  0  0  0  0
   -8.0972   -8.5318   32.2848 C   0  0  0  0  0  0  0  0  0  0  0  0
   -9.0572   -9.1047   33.3474 C   0  0  0  0  0  0  0  0  0  0  0  0
   -6.7578   -9.3765   32.3791 C   0  0  0  0  0  0  0  0  0  0  0  0
   -6.3724   -9.9369   31.0099 C   0  0  0  0  0  0  0  0  0  0  0  0
   -7.0322   -9.7038   30.0110 O   0  0  0  0  0  0  0  0  0  0  0  0
   -4.7882  -10.8239   31.1919 N   0  0  0  0  0  0  0  0  0  0  0  0
   -3.3001   -9.5446   31.0782 C   0  0  0  0  0  0  0  0  0  0  0  0
   -1.7109   -9.8686   30.5317 C   0  0  0  0  0  0  0  0  0  0  0  0
   -2.0579  -11.0302   29.5539 C   0  0  0  0  0  0  0  0  0  0  0  0
   -3.6185  -11.9246   29.7622 C   0  0  0  0  0  0  0  0  0  0  0  0
   -2.9572  -14.0448   29.6026 C   0  0  0  0  0  0  0  0  0  0  0  0
   -3.2350  -16.0410   29.3856 N   0  0  0  0  0  0  0  0  0  0  0  0
   -2.7652  -17.2497   27.9823 C   0  0  0  0  0  0  0  0  0  0  0  0
   -2.2721  -16.9105   26.9091 O   0  0  0  0  0  0  0  0  0  0  0  0
   -2.8646  -19.3719   28.1942 C   0  0  0  0  0  0  0  0  0  0  0  0
   -2.7247  -20.5165   30.1336 C   0  0  0  0  0  0  0  0  0  0  0  0
   -3.2101  -21.6507   31.0957 C   0  0  0  0  0  0  0  0  0  0  0  0
   -4.1624  -22.3521   30.3853 N   0  0  0  0  0  0  0  0  0  0  0  0
   -4.5293  -23.2238   28.7555 C   0  0  0  0  0  0  0  0  0  0  0  0
   -5.1409  -22.2008   27.7250 C   0  0  0  0  0  0  0  0  0  0  0  0
   -5.7543  -22.0427   28.6959 N   0  0  0  0  0  0  0  0  0  0  0  0
   -4.4807  -22.0074   29.1542 C   0  0  0  0  0  0  0  0  0  0  0  0
   -2.9225  -20.7828   29.3259 C   0  0  0  0  0  0  0  0  0  0  0  0
   -7.1079   -6.6384   30.5598 H   0  0  0  0  0  0  0  0  0  0  0  0
   -7.3950   -5.1599   31.5056 H   0  0  0  0  0  0  0  0  0  0  0  0
   -8.7292   -6.0044   30.7059 H   0  0  0  0  0  0  0  0  0  0  0  0
   -7.3019   -6.7792   33.2813 H   0  0  0  0  0  0  0  0  0  0  0  0
   -8.9734   -6.6389   32.9038 H   0  0  0  0  0  0  0  0  0  0  0  0
   -8.6001   -8.7016   31.3260 H   0  0  0  0  0  0  0  0  0  0  0  0
  -10.0415   -8.6279   33.2860 H   0  0  0  0  0  0  0  0  0  0  0  0
   -9.2081  -10.1793   33.1970 H   0  0  0  0  0  0  0  0  0  0  0  0
   -8.6645   -8.9495   34.3581 H   0  0  0  0  0  0  0  0  0  0  0  0
   -6.8605  -10.2304   33.0569 H   0  0  0  0  0  0  0  0  0  0  0  0
   -5.9447   -8.7418   32.7354 H   0  0  0  0  0  0  0  0  0  0  0  0
   -3.8599   -8.5880   31.0621 H   0  0  0  0  0  0  0  0  0  0  0  0
   -2.8977   -9.0292   32.0296 H   0  0  0  0  0  0  0  0  0  0  0  0
   -1.0383  -10.0837   31.3512 H   0  0  0  0  0  0  0  0  0  0  0  0
   -1.1520   -9.0447   30.0440 H   0  0  0  0  0  0  0  0  0  0  0  0
   -1.2286  -11.4583   30.0657 H   0  0  0  0  0  0  0  0  0  0  0  0
   -1.8159  -10.9876   28.5056 H   0  0  0  0  0  0  0  0  0  0  0  0
   -4.2059  -11.8635   28.8755 H   0  0  0  0  0  0  0  0  0  0  0  0
   -2.0443  -14.1053   28.9497 H   0  0  0  0  0  0  0  0  0  0  0  0
   -2.7117  -14.5023   30.5882 H   0  0  0  0  0  0  0  0  0  0  0  0
   -3.5412  -16.5614   30.1891 H   0  0  0  0  0  0  0  0  0  0  0  0
   -1.9087  -20.1582   30.9285 H   0  0  0  0  0  0  0  0  0  0  0  0
   -3.0534  -21.7734   32.1529 H   0  0  0  0  0  0  0  0  0  0  0  0
   -3.8531  -24.0172   28.4288 H   0  0  0  0  0  0  0  0  0  0  0  0
   -5.4352  -22.0779   26.7037 H   0  0  0  0  0  0  0  0  0  0  0  0
   -1.7166  -20.9580   28.5545 H   0  0  0  0  0  0  0  0  0  0  0  0
  1  2  1  0
  2  3  1  0
  3  4  1  0
  3  5  1  0
  5  6  1  0
  6  7  2  0
  6  8  1  0
  8  9  1  0
  9 10  1  0
 10 11  1  0
 11 12  1  0
 12 13  1  0
 13 14  1  0
 14 15  1  0
 15 16  2  0
 15 17  1  0
 17 18  1  0
 18 19  2  0
 19 20  1  0
 20 21  1  0
 21 22  2  0
 22 23  1  0
 23 24  2  0
 24 25  1  0
 12  8  1  0
 25 17  2  0
 24 20  1  0
  1 26  1  0
  1 27  1  0
  1 28  1  0
  2 29  1  0
  2 30  1  0
  3 31  1  0
  4 32  1  0
  4 33  1  0
  4 34  1  0
  5 35  1  0
  5 36  1  0
  9 37  1  0
  9 38  1  0
 10 39  1  0
 10 40  1  0
 11 41  1  0
 11 42  1  0
 12 43  1  0
 13 44  1  0
 13 45  1  0
 14 46  1  0
 18 47  1  0
 19 48  1  0
 21 49  1  0
 22 50  1  0
 25 51  1  0
M  END
>  <Energy>  (363) 
2171.3387596172061

>  <compound_id>  (363) 
37758

>  <target_id>  (363) 
1

>  <reference_id>  (363) 
53

>  <inspiration_ids>  (363) 
[53, 45]

>  <energy_score>  (363) 
2107.163147220019

>  <distance_score>  (363) 
10.692372235469712

>  <path>  (363) 
/opt/xchem-fragalysis-2/maxwin/BulkDock/SCRATCH/511016/C37758-P53/C37758-P53.minimised.mol

>  <scratch_subdir>  (363) 
/opt/xchem-fragalysis-2/maxwin/BulkDock/SCRATCH/511016/C37758-P53

>  <fragmenstein_runtime>  (363) 
38.949801206588745

>  <fragmenstein_outcome>  (363) 
too moved

>  <fragmenstein_mode>  (363) 
expansion

>  <fragmenstein_error>  (363) 


$$$$
C37758-P45
     RDKit          3D

 51 53  0  0  0  0  0  0  0  0999 V2000
   -0.0520   -4.8235   29.0188 C   0  0  0  0  0  0  0  0  0  0  0  0
   -0.1167   -6.3230   29.3576 C   0  0  0  0  0  0  0  0  0  0  0  0
   -0.0493   -7.3603   28.1758 C   0  0  0  0  0  0  0  0  0  0  0  0
   -0.7180   -6.7645   26.9265 C   0  0  0  0  0  0  0  0  0  0  0  0
   -0.6547   -8.7706   28.4474 C   0  0  0  0  0  0  0  0  0  0  0  0
   -0.5962  -10.3200   28.8998 C   0  0  0  0  0  0  0  0  0  0  0  0
    0.5883  -10.6494   29.1129 O   0  0  0  0  0  0  0  0  0  0  0  0
   -2.1515  -11.3288   29.1772 N   0  0  0  0  0  0  0  0  0  0  0  0
   -2.6537  -11.1039   30.4799 C   0  0  0  0  0  0  0  0  0  0  0  0
   -1.4270  -10.8195   31.1037 C   0  0  0  0  0  0  0  0  0  0  0  0
   -1.0804  -12.4724   31.1761 C   0  0  0  0  0  0  0  0  0  0  0  0
   -2.3664  -13.2444   29.7494 C   0  0  0  0  0  0  0  0  0  0  0  0
   -2.2661  -15.2623   29.0142 C   0  0  0  0  0  0  0  0  0  0  0  0
   -3.7284  -16.5794   28.5819 N   0  0  0  0  0  0  0  0  0  0  0  0
   -3.7461  -18.3561   27.6675 C   0  0  0  0  0  0  0  0  0  0  0  0
   -2.6332  -18.7630   27.2706 O   0  0  0  0  0  0  0  0  0  0  0  0
   -5.4669  -19.7026   27.0541 C   0  0  0  0  0  0  0  0  0  0  0  0
   -5.1645  -21.5997   26.9675 C   0  0  0  0  0  0  0  0  0  0  0  0
   -5.5539  -22.9348   26.8538 C   0  0  0  0  0  0  0  0  0  0  0  0
   -6.7675  -23.2873   27.1769 N   0  0  0  0  0  0  0  0  0  0  0  0
   -7.3868  -24.4787   27.3468 C   0  0  0  0  0  0  0  0  0  0  0  0
   -8.5374  -24.1319   27.9913 C   0  0  0  0  0  0  0  0  0  0  0  0
   -8.5495  -22.7677   28.1977 N   0  0  0  0  0  0  0  0  0  0  0  0
   -7.4526  -22.2553   27.6433 C   0  0  0  0  0  0  0  0  0  0  0  0
   -6.8700  -20.7317   27.4176 C   0  0  0  0  0  0  0  0  0  0  0  0
   -0.1013   -4.2389   29.9438 H   0  0  0  0  0  0  0  0  0  0  0  0
   -0.8808   -4.5065   28.3901 H   0  0  0  0  0  0  0  0  0  0  0  0
    0.8795   -4.5578   28.5146 H   0  0  0  0  0  0  0  0  0  0  0  0
   -1.0108   -6.5203   29.9508 H   0  0  0  0  0  0  0  0  0  0  0  0
    0.6902   -6.5047   30.0705 H   0  0  0  0  0  0  0  0  0  0  0  0
    0.9515   -7.5809   27.8965 H   0  0  0  0  0  0  0  0  0  0  0  0
   -0.2391   -5.8328   26.6390 H   0  0  0  0  0  0  0  0  0  0  0  0
   -0.6509   -7.4283   26.0598 H   0  0  0  0  0  0  0  0  0  0  0  0
   -1.7718   -6.5833   27.1129 H   0  0  0  0  0  0  0  0  0  0  0  0
   -0.5467   -9.0664   27.4081 H   0  0  0  0  0  0  0  0  0  0  0  0
   -1.3949   -8.3346   29.0603 H   0  0  0  0  0  0  0  0  0  0  0  0
   -3.0350  -10.2147   31.0081 H   0  0  0  0  0  0  0  0  0  0  0  0
   -3.5580  -11.6740   30.6630 H   0  0  0  0  0  0  0  0  0  0  0  0
   -0.9752   -9.9849   30.6231 H   0  0  0  0  0  0  0  0  0  0  0  0
   -1.6134  -10.1730   32.0261 H   0  0  0  0  0  0  0  0  0  0  0  0
   -0.9118  -12.9327   32.2101 H   0  0  0  0  0  0  0  0  0  0  0  0
   -0.0498  -12.8167   31.1669 H   0  0  0  0  0  0  0  0  0  0  0  0
   -3.4412  -13.1957   29.9634 H   0  0  0  0  0  0  0  0  0  0  0  0
   -1.6894  -15.2558   28.0993 H   0  0  0  0  0  0  0  0  0  0  0  0
   -1.7831  -15.8005   29.8355 H   0  0  0  0  0  0  0  0  0  0  0  0
   -4.6589  -16.3996   28.9382 H   0  0  0  0  0  0  0  0  0  0  0  0
   -5.1324  -21.8454   28.0792 H   0  0  0  0  0  0  0  0  0  0  0  0
   -4.8875  -23.7810   27.0322 H   0  0  0  0  0  0  0  0  0  0  0  0
   -6.9724  -25.4224   27.0215 H   0  0  0  0  0  0  0  0  0  0  0  0
   -9.3479  -24.7649   28.3277 H   0  0  0  0  0  0  0  0  0  0  0  0
   -7.7346  -20.3711   27.9267 H   0  0  0  0  0  0  0  0  0  0  0  0
  1  2  1  0
  2  3  1  0
  3  4  1  0
  3  5  1  0
  5  6  1  0
  6  7  2  0
  6  8  1  0
  8  9  1  0
  9 10  1  0
 10 11  1  0
 11 12  1  0
 12 13  1  0
 13 14  1  0
 14 15  1  0
 15 16  2  0
 15 17  1  0
 17 18  1  0
 18 19  2  0
 19 20  1  0
 20 21  1  0
 21 22  2  0
 22 23  1  0
 23 24  2  0
 24 25  1  0
 12  8  1  0
 25 17  2  0
 24 20  1  0
  1 26  1  0
  1 27  1  0
  1 28  1  0
  2 29  1  0
  2 30  1  0
  3 31  1  0
  4 32  1  0
  4 33  1  0
  4 34  1  0
  5 35  1  0
  5 36  1  0
  9 37  1  0
  9 38  1  0
 10 39  1  0
 10 40  1  0
 11 41  1  0
 11 42  1  0
 12 43  1  0
 13 44  1  0
 13 45  1  0
 14 46  1  0
 18 47  1  0
 19 48  1  0
 21 49  1  0
 22 50  1  0
 25 51  1  0
M  END
>  <Energy>  (364) 
1434.7800503106093

>  <compound_id>  (364) 
37758

>  <target_id>  (364) 
1

>  <reference_id>  (364) 
45

>  <inspiration_ids>  (364) 
[53, 45]

>  <energy_score>  (364) 
1370.6044379134082

>  <distance_score>  (364) 
8.993757209796678

>  <path>  (364) 
/opt/xchem-fragalysis-2/maxwin/BulkDock/SCRATCH/511016/C37758-P45/C37758-P45.minimised.mol

>  <scratch_subdir>  (364) 
/opt/xchem-fragalysis-2/maxwin/BulkDock/SCRATCH/511016/C37758-P45

>  <fragmenstein_runtime>  (364) 
27.959787845611572

>  <fragmenstein_outcome>  (364) 
too moved

>  <fragmenstein_mode>  (364) 
expansion

>  <fragmenstein_error>  (364) 


$$$$
C37759-P53
     RDKit          3D

 45 47  0  0  0  0  0  0  0  0999 V2000
  -11.3823  -20.5216   29.9571 O   0  0  0  0  0  0  0  0  0  0  0  0
  -10.6882  -20.9908   29.0554 C   0  0  0  0  0  0  0  0  0  0  0  0
   -9.5059  -20.1971   28.0903 N   0  0  0  0  0  0  0  0  0  0  0  0
   -8.9712  -18.2875   27.9843 C   0  0  0  0  0  0  0  0  0  0  0  0
   -9.4760  -16.6958   26.8936 C   0  0  0  0  0  0  0  0  0  0  0  0
  -10.9404  -17.0872   26.0861 C   0  0  0  0  0  0  0  0  0  0  0  0
  -11.2082  -15.8300   26.6446 C   0  0  0  0  0  0  0  0  0  0  0  0
   -9.3965  -16.0303   26.5971 C   0  0  0  0  0  0  0  0  0  0  0  0
   -8.5073  -15.0339   26.5938 N   0  0  0  0  0  0  0  0  0  0  0  0
   -8.0480  -14.0605   27.6750 C   0  0  0  0  0  0  0  0  0  0  0  0
   -8.2700  -14.0220   28.8028 O   0  0  0  0  0  0  0  0  0  0  0  0
   -6.9930  -12.9547   27.2988 C   0  0  0  0  0  0  0  0  0  0  0  0
   -5.9112  -11.8956   28.4828 C   0  0  0  0  0  0  0  0  0  0  0  0
   -6.7233  -10.1639   29.2184 C   0  0  0  0  0  0  0  0  0  0  0  0
   -6.4072   -8.9470   28.7334 F   0  0  0  0  0  0  0  0  0  0  0  0
  -10.9418  -22.3954   28.6153 C   0  0  0  0  0  0  0  0  0  0  0  0
  -10.2213  -23.3308   27.7558 C   0  0  0  0  0  0  0  0  0  0  0  0
  -10.8765  -24.0015   26.7799 C   0  0  0  0  0  0  0  0  0  0  0  0
  -12.2819  -23.9532   26.7463 N   0  0  0  0  0  0  0  0  0  0  0  0
  -13.2105  -24.8295   26.2231 C   0  0  0  0  0  0  0  0  0  0  0  0
  -14.4400  -24.3013   26.5165 C   0  0  0  0  0  0  0  0  0  0  0  0
  -14.3120  -23.2097   27.3213 N   0  0  0  0  0  0  0  0  0  0  0  0
  -13.0194  -23.1096   27.5399 C   0  0  0  0  0  0  0  0  0  0  0  0
  -12.3027  -22.3099   28.4470 C   0  0  0  0  0  0  0  0  0  0  0  0
   -9.0743  -20.8274   27.5362 H   0  0  0  0  0  0  0  0  0  0  0  0
   -9.6337  -18.2896   27.1701 H   0  0  0  0  0  0  0  0  0  0  0  0
   -9.7322  -18.1309   28.5649 H   0  0  0  0  0  0  0  0  0  0  0  0
   -8.7432  -16.6353   27.9867 H   0  0  0  0  0  0  0  0  0  0  0  0
  -11.6974  -17.8090   26.3736 H   0  0  0  0  0  0  0  0  0  0  0  0
  -10.8238  -17.1320   24.9951 H   0  0  0  0  0  0  0  0  0  0  0  0
  -11.7843  -15.1724   26.0080 H   0  0  0  0  0  0  0  0  0  0  0  0
  -11.6628  -15.8774   27.6363 H   0  0  0  0  0  0  0  0  0  0  0  0
   -9.8621  -14.9737   27.0348 H   0  0  0  0  0  0  0  0  0  0  0  0
   -9.2135  -15.9996   25.3478 H   0  0  0  0  0  0  0  0  0  0  0  0
   -6.2551  -13.6054   27.0567 H   0  0  0  0  0  0  0  0  0  0  0  0
   -7.0549  -12.4518   26.3431 H   0  0  0  0  0  0  0  0  0  0  0  0
   -5.1878  -11.7713   27.6411 H   0  0  0  0  0  0  0  0  0  0  0  0
   -5.3287  -12.3418   29.3109 H   0  0  0  0  0  0  0  0  0  0  0  0
   -7.7716   -9.9427   29.4441 H   0  0  0  0  0  0  0  0  0  0  0  0
   -6.4849  -10.3686   30.1997 H   0  0  0  0  0  0  0  0  0  0  0  0
   -9.1561  -23.4840   27.8436 H   0  0  0  0  0  0  0  0  0  0  0  0
  -10.3699  -24.7328   26.1651 H   0  0  0  0  0  0  0  0  0  0  0  0
  -12.9254  -25.7672   25.7782 H   0  0  0  0  0  0  0  0  0  0  0  0
  -15.4125  -24.6911   26.2476 H   0  0  0  0  0  0  0  0  0  0  0  0
  -12.9413  -21.5615   28.9109 H   0  0  0  0  0  0  0  0  0  0  0  0
  1  2  2  0
  2  3  1  0
  3  4  1  0
  4  5  1  0
  5  6  1  0
  6  7  1  0
  7  8  1  0
  8  9  1  0
  9 10  1  0
 10 11  2  0
 10 12  1  0
 12 13  1  0
 13 14  1  0
 14 15  1  0
  2 16  1  0
 16 17  1  0
 17 18  2  0
 18 19  1  0
 19 20  1  0
 20 21  2  0
 21 22  1  0
 22 23  2  0
 23 24  1  0
  9  5  1  0
 24 16  2  0
 23 19  1  0
  3 25  1  0
  4 26  1  0
  4 27  1  0
  5 28  1  0
  6 29  1  0
  6 30  1  0
  7 31  1  0
  7 32  1  0
  8 33  1  0
  8 34  1  0
 12 35  1  0
 12 36  1  0
 13 37  1  0
 13 38  1  0
 14 39  1  0
 14 40  1  0
 17 41  1  0
 18 42  1  0
 20 43  1  0
 21 44  1  0
 24 45  1  0
M  END
>  <Energy>  (365) 
1335.00650407384

>  <compound_id>  (365) 
37759

>  <target_id>  (365) 
1

>  <reference_id>  (365) 
53

>  <inspiration_ids>  (365) 
[53, 45]

>  <energy_score>  (365) 
1281.5334504379375

>  <distance_score>  (365) 
10.99168164376065

>  <path>  (365) 
/opt/xchem-fragalysis-2/maxwin/BulkDock/SCRATCH/511016/C37759-P53/C37759-P53.minimised.mol

>  <scratch_subdir>  (365) 
/opt/xchem-fragalysis-2/maxwin/BulkDock/SCRATCH/511016/C37759-P53

>  <fragmenstein_runtime>  (365) 
53.585575103759766

>  <fragmenstein_outcome>  (365) 
too moved

>  <fragmenstein_mode>  (365) 
expansion

>  <fragmenstein_error>  (365) 


$$$$
C37759-P45
     RDKit          3D

 45 47  0  0  0  0  0  0  0  0999 V2000
   -5.9207  -19.5974   26.2824 O   0  0  0  0  0  0  0  0  0  0  0  0
   -6.9883  -19.5946   26.9861 C   0  0  0  0  0  0  0  0  0  0  0  0
   -8.1559  -18.0158   27.5331 N   0  0  0  0  0  0  0  0  0  0  0  0
   -8.0734  -15.9315   26.9903 C   0  0  0  0  0  0  0  0  0  0  0  0
   -7.3508  -13.8000   26.8396 C   0  0  0  0  0  0  0  0  0  0  0  0
   -7.0386  -13.8489   28.2770 C   0  0  0  0  0  0  0  0  0  0  0  0
   -6.3151  -12.6910   27.9398 C   0  0  0  0  0  0  0  0  0  0  0  0
   -7.0410  -12.7851   26.7195 C   0  0  0  0  0  0  0  0  0  0  0  0
   -7.3148  -11.6700   26.1350 N   0  0  0  0  0  0  0  0  0  0  0  0
   -6.9307   -9.8271   26.9860 C   0  0  0  0  0  0  0  0  0  0  0  0
   -6.5249   -9.5408   28.1084 O   0  0  0  0  0  0  0  0  0  0  0  0
   -7.2459   -8.6457   26.3296 C   0  0  0  0  0  0  0  0  0  0  0  0
   -7.2274   -6.5104   26.2155 C   0  0  0  0  0  0  0  0  0  0  0  0
   -8.5937   -5.2077   26.6314 C   0  0  0  0  0  0  0  0  0  0  0  0
   -9.7178   -5.5020   27.2897 F   0  0  0  0  0  0  0  0  0  0  0  0
   -7.3777  -21.4435   27.6028 C   0  0  0  0  0  0  0  0  0  0  0  0
   -6.1129  -22.3602   27.4374 C   0  0  0  0  0  0  0  0  0  0  0  0
   -6.0484  -23.6993   27.3610 C   0  0  0  0  0  0  0  0  0  0  0  0
   -7.1942  -24.4085   27.5419 N   0  0  0  0  0  0  0  0  0  0  0  0
   -7.4852  -25.7257   27.3289 C   0  0  0  0  0  0  0  0  0  0  0  0
   -8.7889  -25.8700   27.7408 C   0  0  0  0  0  0  0  0  0  0  0  0
   -9.2969  -24.6735   28.1795 N   0  0  0  0  0  0  0  0  0  0  0  0
   -8.3319  -23.7979   27.9789 C   0  0  0  0  0  0  0  0  0  0  0  0
   -8.3541  -22.3556   28.0274 C   0  0  0  0  0  0  0  0  0  0  0  0
   -8.8594  -18.3214   28.1380 H   0  0  0  0  0  0  0  0  0  0  0  0
   -8.0640  -15.8153   28.0387 H   0  0  0  0  0  0  0  0  0  0  0  0
   -9.0677  -15.8359   26.5525 H   0  0  0  0  0  0  0  0  0  0  0  0
   -6.9640  -14.3832   25.9102 H   0  0  0  0  0  0  0  0  0  0  0  0
   -6.4375  -14.6129   28.7367 H   0  0  0  0  0  0  0  0  0  0  0  0
   -8.0412  -13.8464   28.6900 H   0  0  0  0  0  0  0  0  0  0  0  0
   -5.3944  -12.3240   27.4535 H   0  0  0  0  0  0  0  0  0  0  0  0
   -5.9513  -12.2324   28.8639 H   0  0  0  0  0  0  0  0  0  0  0  0
   -6.3328  -12.6827   25.8318 H   0  0  0  0  0  0  0  0  0  0  0  0
   -8.2653  -12.4596   26.9511 H   0  0  0  0  0  0  0  0  0  0  0  0
   -6.2292   -8.3886   26.8559 H   0  0  0  0  0  0  0  0  0  0  0  0
   -7.2292   -9.0034   25.2552 H   0  0  0  0  0  0  0  0  0  0  0  0
   -6.8310   -6.4175   25.1361 H   0  0  0  0  0  0  0  0  0  0  0  0
   -6.5300   -5.9650   26.9131 H   0  0  0  0  0  0  0  0  0  0  0  0
   -8.8879   -4.6523   25.7276 H   0  0  0  0  0  0  0  0  0  0  0  0
   -8.1347   -4.4651   27.2899 H   0  0  0  0  0  0  0  0  0  0  0  0
   -5.2494  -21.8185   27.1550 H   0  0  0  0  0  0  0  0  0  0  0  0
   -5.1530  -24.2542   27.1167 H   0  0  0  0  0  0  0  0  0  0  0  0
   -6.7690  -26.4232   26.9162 H   0  0  0  0  0  0  0  0  0  0  0  0
   -9.3889  -26.7715   27.7370 H   0  0  0  0  0  0  0  0  0  0  0  0
   -9.3947  -22.0465   28.2164 H   0  0  0  0  0  0  0  0  0  0  0  0
  1  2  2  0
  2  3  1  0
  3  4  1  0
  4  5  1  0
  5  6  1  0
  6  7  1  0
  7  8  1  0
  8  9  1  0
  9 10  1  0
 10 11  2  0
 10 12  1  0
 12 13  1  0
 13 14  1  0
 14 15  1  0
  2 16  1  0
 16 17  1  0
 17 18  2  0
 18 19  1  0
 19 20  1  0
 20 21  2  0
 21 22  1  0
 22 23  2  0
 23 24  1  0
  9  5  1  0
 24 16  2  0
 23 19  1  0
  3 25  1  0
  4 26  1  0
  4 27  1  0
  5 28  1  0
  6 29  1  0
  6 30  1  0
  7 31  1  0
  7 32  1  0
  8 33  1  0
  8 34  1  0
 12 35  1  0
 12 36  1  0
 13 37  1  0
 13 38  1  0
 14 39  1  0
 14 40  1  0
 17 41  1  0
 18 42  1  0
 20 43  1  0
 21 44  1  0
 24 45  1  0
M  END
>  <Energy>  (366) 
1988.1345968198184

>  <compound_id>  (366) 
37759

>  <target_id>  (366) 
1

>  <reference_id>  (366) 
45

>  <inspiration_ids>  (366) 
[53, 45]

>  <energy_score>  (366) 
1934.6615431839512

>  <distance_score>  (366) 
8.501739734425126

>  <path>  (366) 
/opt/xchem-fragalysis-2/maxwin/BulkDock/SCRATCH/511016/C37759-P45/C37759-P45.minimised.mol

>  <scratch_subdir>  (366) 
/opt/xchem-fragalysis-2/maxwin/BulkDock/SCRATCH/511016/C37759-P45

>  <fragmenstein_runtime>  (366) 
41.963318824768066

>  <fragmenstein_outcome>  (366) 
too moved

>  <fragmenstein_mode>  (366) 
expansion

>  <fragmenstein_error>  (366) 


$$$$
C37734-P53
     RDKit          3D

 49 51  0  0  0  0  0  0  0  0999 V2000
   -7.9209   -5.1226   26.3638 C   0  0  0  0  0  0  0  0  0  0  0  0
   -6.9207   -6.5919   25.8506 C   0  0  0  0  0  0  0  0  0  0  0  0
   -6.5917   -5.8009   24.3481 C   0  0  0  0  0  0  0  0  0  0  0  0
   -7.2579   -8.6237   26.2979 O   0  0  0  0  0  0  0  0  0  0  0  0
   -7.2490  -10.6236   25.7880 C   0  0  0  0  0  0  0  0  0  0  0  0
   -7.2962  -12.6313   26.6827 C   0  0  0  0  0  0  0  0  0  0  0  0
   -6.4245  -12.7942   27.4882 O   0  0  0  0  0  0  0  0  0  0  0  0
   -8.5432  -14.0543   26.5273 N   0  0  0  0  0  0  0  0  0  0  0  0
   -9.6732  -13.8546   27.4357 C   0  0  0  0  0  0  0  0  0  0  0  0
  -10.9223  -14.7825   27.2349 C   0  0  0  0  0  0  0  0  0  0  0  0
  -10.2206  -16.0239   26.7769 C   0  0  0  0  0  0  0  0  0  0  0  0
   -8.6375  -15.8034   27.3166 C   0  0  0  0  0  0  0  0  0  0  0  0
   -8.3814  -17.7125   28.0131 C   0  0  0  0  0  0  0  0  0  0  0  0
   -9.0043  -19.4775   28.3247 N   0  0  0  0  0  0  0  0  0  0  0  0
   -8.2468  -21.1204   27.9324 C   0  0  0  0  0  0  0  0  0  0  0  0
   -7.1789  -21.3964   27.4960 O   0  0  0  0  0  0  0  0  0  0  0  0
   -9.7179  -22.3186   28.2984 C   0  0  0  0  0  0  0  0  0  0  0  0
   -9.6463  -23.6037   27.5355 C   0  0  0  0  0  0  0  0  0  0  0  0
  -10.7167  -23.9843   26.8252 C   0  0  0  0  0  0  0  0  0  0  0  0
  -11.9420  -23.3800   27.0942 N   0  0  0  0  0  0  0  0  0  0  0  0
  -13.1922  -23.6347   26.5977 C   0  0  0  0  0  0  0  0  0  0  0  0
  -14.0463  -22.8485   27.3330 C   0  0  0  0  0  0  0  0  0  0  0  0
  -13.3715  -22.1177   28.2711 N   0  0  0  0  0  0  0  0  0  0  0  0
  -12.1085  -22.4412   28.1033 C   0  0  0  0  0  0  0  0  0  0  0  0
  -10.9414  -21.9459   28.7471 C   0  0  0  0  0  0  0  0  0  0  0  0
   -8.2948   -4.5580   25.5029 H   0  0  0  0  0  0  0  0  0  0  0  0
   -7.2426   -4.3783   26.8263 H   0  0  0  0  0  0  0  0  0  0  0  0
   -8.7366   -5.2298   27.0702 H   0  0  0  0  0  0  0  0  0  0  0  0
   -6.4204   -5.9349   26.6644 H   0  0  0  0  0  0  0  0  0  0  0  0
   -6.5028   -4.7202   24.5208 H   0  0  0  0  0  0  0  0  0  0  0  0
   -7.3896   -5.8291   23.6082 H   0  0  0  0  0  0  0  0  0  0  0  0
   -5.6631   -6.0513   23.8304 H   0  0  0  0  0  0  0  0  0  0  0  0
   -6.8135  -10.6946   24.8139 H   0  0  0  0  0  0  0  0  0  0  0  0
   -8.3162  -10.7266   25.7019 H   0  0  0  0  0  0  0  0  0  0  0  0
  -10.1283  -12.9475   27.0853 H   0  0  0  0  0  0  0  0  0  0  0  0
   -9.2127  -13.7460   28.3950 H   0  0  0  0  0  0  0  0  0  0  0  0
  -11.6999  -14.4556   26.5363 H   0  0  0  0  0  0  0  0  0  0  0  0
  -11.5416  -14.8287   28.1313 H   0  0  0  0  0  0  0  0  0  0  0  0
  -10.1349  -16.2573   25.7237 H   0  0  0  0  0  0  0  0  0  0  0  0
  -10.8343  -16.8501   27.0918 H   0  0  0  0  0  0  0  0  0  0  0  0
   -8.1887  -16.0362   26.3776 H   0  0  0  0  0  0  0  0  0  0  0  0
   -9.1740  -17.7905   27.2942 H   0  0  0  0  0  0  0  0  0  0  0  0
   -8.8311  -17.5705   28.9032 H   0  0  0  0  0  0  0  0  0  0  0  0
   -9.8890  -19.5990   28.5749 H   0  0  0  0  0  0  0  0  0  0  0  0
   -8.6900  -24.0178   27.3165 H   0  0  0  0  0  0  0  0  0  0  0  0
  -10.6667  -24.8270   26.1591 H   0  0  0  0  0  0  0  0  0  0  0  0
  -13.3833  -24.3618   25.8271 H   0  0  0  0  0  0  0  0  0  0  0  0
  -15.1228  -22.7850   27.2429 H   0  0  0  0  0  0  0  0  0  0  0  0
  -11.1178  -21.1442   29.4348 H   0  0  0  0  0  0  0  0  0  0  0  0
  1  2  1  0
  2  3  1  0
  2  4  1  0
  4  5  1  0
  5  6  1  0
  6  7  2  0
  6  8  1  0
  8  9  1  0
  9 10  1  0
 10 11  1  0
 11 12  1  0
 12 13  1  0
 13 14  1  0
 14 15  1  0
 15 16  2  0
 15 17  1  0
 17 18  1  0
 18 19  2  0
 19 20  1  0
 20 21  1  0
 21 22  2  0
 22 23  1  0
 23 24  2  0
 24 25  1  0
 12  8  1  0
 25 17  2  0
 24 20  1  0
  1 26  1  0
  1 27  1  0
  1 28  1  0
  2 29  1  0
  3 30  1  0
  3 31  1  0
  3 32  1  0
  5 33  1  0
  5 34  1  0
  9 35  1  0
  9 36  1  0
 10 37  1  0
 10 38  1  0
 11 39  1  0
 11 40  1  0
 12 41  1  0
 13 42  1  0
 13 43  1  0
 14 44  1  0
 18 45  1  0
 19 46  1  0
 21 47  1  0
 22 48  1  0
 25 49  1  0
M  END
>  <Energy>  (367) 
1251.2584748105337

>  <compound_id>  (367) 
37734

>  <target_id>  (367) 
1

>  <reference_id>  (367) 
53

>  <inspiration_ids>  (367) 
[53, 45]

>  <energy_score>  (367) 
1138.2582644831562

>  <distance_score>  (367) 
10.345391518214972

>  <path>  (367) 
/opt/xchem-fragalysis-2/maxwin/BulkDock/SCRATCH/511016/C37734-P53/C37734-P53.minimised.mol

>  <scratch_subdir>  (367) 
/opt/xchem-fragalysis-2/maxwin/BulkDock/SCRATCH/511016/C37734-P53

>  <fragmenstein_runtime>  (367) 
36.26898670196533

>  <fragmenstein_outcome>  (367) 
too moved

>  <fragmenstein_mode>  (367) 
expansion

>  <fragmenstein_error>  (367) 


$$$$
C37734-P45
     RDKit          3D

 49 51  0  0  0  0  0  0  0  0999 V2000
   -5.5005   -3.3276   27.7338 C   0  0  0  0  0  0  0  0  0  0  0  0
   -6.8188   -3.8940   28.0111 C   0  0  0  0  0  0  0  0  0  0  0  0
   -7.8019   -3.3964   26.9562 C   0  0  0  0  0  0  0  0  0  0  0  0
   -6.6284   -5.3433   27.8578 O   0  0  0  0  0  0  0  0  0  0  0  0
   -6.2952   -6.5253   29.1478 C   0  0  0  0  0  0  0  0  0  0  0  0
   -5.4696   -8.2542   28.7076 C   0  0  0  0  0  0  0  0  0  0  0  0
   -4.3195   -8.0786   28.6228 O   0  0  0  0  0  0  0  0  0  0  0  0
   -6.4983   -9.9154   28.4870 N   0  0  0  0  0  0  0  0  0  0  0  0
   -7.0305  -10.0176   26.6247 C   0  0  0  0  0  0  0  0  0  0  0  0
   -6.9695  -11.2804   25.8370 C   0  0  0  0  0  0  0  0  0  0  0  0
   -6.6677  -12.5119   26.6954 C   0  0  0  0  0  0  0  0  0  0  0  0
   -5.9017  -12.1548   28.1846 C   0  0  0  0  0  0  0  0  0  0  0  0
   -6.5201  -14.3527   28.5115 C   0  0  0  0  0  0  0  0  0  0  0  0
   -7.0118  -16.4814   28.1668 N   0  0  0  0  0  0  0  0  0  0  0  0
   -5.8599  -18.1177   27.6979 C   0  0  0  0  0  0  0  0  0  0  0  0
   -4.6536  -18.0240   27.6630 O   0  0  0  0  0  0  0  0  0  0  0  0
   -6.4073  -20.0651   27.0262 C   0  0  0  0  0  0  0  0  0  0  0  0
   -5.3443  -21.4782   26.9789 C   0  0  0  0  0  0  0  0  0  0  0  0
   -5.3935  -22.7937   27.3627 C   0  0  0  0  0  0  0  0  0  0  0  0
   -6.5493  -23.3756   27.6395 N   0  0  0  0  0  0  0  0  0  0  0  0
   -6.9256  -24.6830   27.6377 C   0  0  0  0  0  0  0  0  0  0  0  0
   -8.2590  -24.6498   27.9448 C   0  0  0  0  0  0  0  0  0  0  0  0
   -8.6667  -23.3499   28.0683 N   0  0  0  0  0  0  0  0  0  0  0  0
   -7.6137  -22.6018   27.7534 C   0  0  0  0  0  0  0  0  0  0  0  0
   -7.4631  -21.1316   27.5573 C   0  0  0  0  0  0  0  0  0  0  0  0
   -5.2359   -3.4115   26.6905 H   0  0  0  0  0  0  0  0  0  0  0  0
   -5.0569   -2.4121   27.9847 H   0  0  0  0  0  0  0  0  0  0  0  0
   -4.9522   -3.7813   28.4997 H   0  0  0  0  0  0  0  0  0  0  0  0
   -7.1564   -3.5843   29.0008 H   0  0  0  0  0  0  0  0  0  0  0  0
   -7.4423   -3.6014   25.9413 H   0  0  0  0  0  0  0  0  0  0  0  0
   -7.9980   -2.3252   27.0542 H   0  0  0  0  0  0  0  0  0  0  0  0
   -8.7575   -3.9227   27.0464 H   0  0  0  0  0  0  0  0  0  0  0  0
   -5.6524   -5.7133   29.3865 H   0  0  0  0  0  0  0  0  0  0  0  0
   -6.5172   -6.3371   30.2369 H   0  0  0  0  0  0  0  0  0  0  0  0
   -8.0502   -9.7820   26.9439 H   0  0  0  0  0  0  0  0  0  0  0  0
   -7.2293   -8.9939   26.4271 H   0  0  0  0  0  0  0  0  0  0  0  0
   -8.0465  -11.2856   25.7569 H   0  0  0  0  0  0  0  0  0  0  0  0
   -6.5022  -11.2837   24.8621 H   0  0  0  0  0  0  0  0  0  0  0  0
   -7.6230  -12.8779   27.0713 H   0  0  0  0  0  0  0  0  0  0  0  0
   -6.5039  -13.4469   26.2270 H   0  0  0  0  0  0  0  0  0  0  0  0
   -4.8459  -12.1103   27.8365 H   0  0  0  0  0  0  0  0  0  0  0  0
   -7.5864  -14.1034   28.3951 H   0  0  0  0  0  0  0  0  0  0  0  0
   -6.2070  -14.3837   29.5820 H   0  0  0  0  0  0  0  0  0  0  0  0
   -7.9848  -16.7175   28.0669 H   0  0  0  0  0  0  0  0  0  0  0  0
   -4.7128  -21.1397   26.1479 H   0  0  0  0  0  0  0  0  0  0  0  0
   -4.6328  -23.5504   27.2840 H   0  0  0  0  0  0  0  0  0  0  0  0
   -6.2441  -25.4874   27.3984 H   0  0  0  0  0  0  0  0  0  0  0  0
   -8.9464  -25.4772   28.0617 H   0  0  0  0  0  0  0  0  0  0  0  0
   -8.4841  -20.9155   27.7517 H   0  0  0  0  0  0  0  0  0  0  0  0
  1  2  1  0
  2  3  1  0
  2  4  1  0
  4  5  1  0
  5  6  1  0
  6  7  2  0
  6  8  1  0
  8  9  1  0
  9 10  1  0
 10 11  1  0
 11 12  1  0
 12 13  1  0
 13 14  1  0
 14 15  1  0
 15 16  2  0
 15 17  1  0
 17 18  1  0
 18 19  2  0
 19 20  1  0
 20 21  1  0
 21 22  2  0
 22 23  1  0
 23 24  2  0
 24 25  1  0
 12  8  1  0
 25 17  2  0
 24 20  1  0
  1 26  1  0
  1 27  1  0
  1 28  1  0
  2 29  1  0
  3 30  1  0
  3 31  1  0
  3 32  1  0
  5 33  1  0
  5 34  1  0
  9 35  1  0
  9 36  1  0
 10 37  1  0
 10 38  1  0
 11 39  1  0
 11 40  1  0
 12 41  1  0
 13 42  1  0
 13 43  1  0
 14 44  1  0
 18 45  1  0
 19 46  1  0
 21 47  1  0
 22 48  1  0
 25 49  1  0
M  END
>  <Energy>  (368) 
1700.6691461851735

>  <compound_id>  (368) 
37734

>  <target_id>  (368) 
1

>  <reference_id>  (368) 
45

>  <inspiration_ids>  (368) 
[53, 45]

>  <energy_score>  (368) 
1587.6689358578253

>  <distance_score>  (368) 
8.417480641558326

>  <path>  (368) 
/opt/xchem-fragalysis-2/maxwin/BulkDock/SCRATCH/511016/C37734-P45/C37734-P45.minimised.mol

>  <scratch_subdir>  (368) 
/opt/xchem-fragalysis-2/maxwin/BulkDock/SCRATCH/511016/C37734-P45

>  <fragmenstein_runtime>  (368) 
46.48807334899902

>  <fragmenstein_outcome>  (368) 
too moved

>  <fragmenstein_mode>  (368) 
expansion

>  <fragmenstein_error>  (368) 


$$$$
C33094-P60
     RDKit          3D

 47 48  0  0  0  0  0  0  0  0999 V2000
   -2.5510  -17.6028   18.1497 O   0  0  0  0  0  0  0  0  0  0  0  0
   -1.7073  -17.7940   18.9849 C   0  0  0  0  0  0  0  0  0  0  0  0
   -1.7815  -18.4802   20.2677 N   0  0  0  0  0  0  0  0  0  0  0  0
   -2.9460  -19.0745   20.9947 C   0  0  0  0  0  0  0  0  0  0  0  0
   -2.7101  -19.9614   22.2665 C   0  0  0  0  0  0  0  0  0  0  0  0
   -2.0220  -19.2004   23.2752 O   0  0  0  0  0  0  0  0  0  0  0  0
   -3.9994  -20.5713   22.9431 C   0  0  0  0  0  0  0  0  0  0  0  0
   -3.5561  -21.4013   24.0970 N   0  0  0  0  0  0  0  0  0  0  0  0
   -4.6484  -21.9623   24.9065 C   0  0  0  0  0  0  0  0  0  0  0  0
   -5.2519  -23.2594   24.2962 C   0  0  0  0  0  0  0  0  0  0  0  0
   -5.1698  -23.4841   23.1167 O   0  0  0  0  0  0  0  0  0  0  0  0
   -5.9216  -23.9858   25.3411 N   0  0  0  0  0  0  0  0  0  0  0  0
   -6.8249  -25.1932   25.2771 C   0  0  0  0  0  0  0  0  0  0  0  0
   -7.5552  -25.5327   26.5835 C   0  0  0  0  0  0  0  0  0  0  0  0
   -6.5619  -26.1295   27.5545 C   0  0  0  0  0  0  0  0  0  0  0  0
   -5.2582  -25.3756   27.4300 C   0  0  0  0  0  0  0  0  0  0  0  0
   -4.9694  -25.0037   25.9661 C   0  0  0  0  0  0  0  0  0  0  0  0
   -0.3278  -17.1657   18.5913 C   0  0  0  0  0  0  0  0  0  0  0  0
   -0.2400  -16.3029   17.4756 C   0  0  0  0  0  0  0  0  0  0  0  0
    0.9989  -15.7905   17.0549 C   0  0  0  0  0  0  0  0  0  0  0  0
    2.1394  -16.1402   17.7556 C   0  0  0  0  0  0  0  0  0  0  0  0
    1.9765  -16.9747   18.8515 C   0  0  0  0  0  0  0  0  0  0  0  0
    0.7838  -17.4879   19.2947 N   0  0  0  0  0  0  0  0  0  0  0  0
   -0.8890  -18.3763   20.7528 H   0  0  0  0  0  0  0  0  0  0  0  0
   -3.5843  -18.2262   21.2641 H   0  0  0  0  0  0  0  0  0  0  0  0
   -3.5001  -19.6544   20.2478 H   0  0  0  0  0  0  0  0  0  0  0  0
   -2.0375  -20.7787   21.9774 H   0  0  0  0  0  0  0  0  0  0  0  0
   -2.1003  -19.7466   24.0829 H   0  0  0  0  0  0  0  0  0  0  0  0
   -4.5568  -21.1627   22.2113 H   0  0  0  0  0  0  0  0  0  0  0  0
   -4.6293  -19.7528   23.3088 H   0  0  0  0  0  0  0  0  0  0  0  0
   -3.0217  -22.1877   23.7160 H   0  0  0  0  0  0  0  0  0  0  0  0
   -5.4225  -21.2152   25.0670 H   0  0  0  0  0  0  0  0  0  0  0  0
   -4.2295  -22.2010   25.8900 H   0  0  0  0  0  0  0  0  0  0  0  0
   -6.4612  -26.0611   24.7005 H   0  0  0  0  0  0  0  0  0  0  0  0
   -7.6150  -24.8387   24.5980 H   0  0  0  0  0  0  0  0  0  0  0  0
   -8.0133  -24.6269   26.9913 H   0  0  0  0  0  0  0  0  0  0  0  0
   -8.3653  -26.2450   26.3919 H   0  0  0  0  0  0  0  0  0  0  0  0
   -6.3736  -27.1702   27.2745 H   0  0  0  0  0  0  0  0  0  0  0  0
   -6.9405  -26.1382   28.5807 H   0  0  0  0  0  0  0  0  0  0  0  0
   -5.2967  -24.4644   28.0177 H   0  0  0  0  0  0  0  0  0  0  0  0
   -4.4370  -25.9784   27.8339 H   0  0  0  0  0  0  0  0  0  0  0  0
   -4.6864  -25.8530   25.3200 H   0  0  0  0  0  0  0  0  0  0  0  0
   -4.0071  -24.4697   26.0200 H   0  0  0  0  0  0  0  0  0  0  0  0
   -1.1359  -16.0517   16.9136 H   0  0  0  0  0  0  0  0  0  0  0  0
    1.0572  -15.1545   16.1754 H   0  0  0  0  0  0  0  0  0  0  0  0
    3.1241  -15.8023   17.4562 H   0  0  0  0  0  0  0  0  0  0  0  0
    2.8439  -17.2921   19.4234 H   0  0  0  0  0  0  0  0  0  0  0  0
  1  2  2  0
  2  3  1  0
  3  4  1  0
  4  5  1  0
  5  6  1  0
  5  7  1  0
  7  8  1  0
  8  9  1  0
  9 10  1  0
 10 11  2  0
 10 12  1  0
 12 13  1  0
 13 14  1  0
 14 15  1  0
 15 16  1  0
 16 17  1  0
  2 18  1  0
 18 19  2  0
 19 20  1  0
 20 21  2  0
 21 22  1  0
 22 23  2  0
 17 12  1  0
 23 18  1  0
  3 24  1  0
  4 25  1  0
  4 26  1  0
  5 27  1  0
  6 28  1  0
  7 29  1  0
  7 30  1  0
  8 31  1  0
  9 32  1  0
  9 33  1  0
 13 34  1  0
 13 35  1  0
 14 36  1  0
 14 37  1  0
 15 38  1  0
 15 39  1  0
 16 40  1  0
 16 41  1  0
 17 42  1  0
 17 43  1  0
 19 44  1  0
 20 45  1  0
 21 46  1  0
 22 47  1  0
M  END
>  <Energy>  (369) 
183.97470790296049

>  <compound_id>  (369) 
33094

>  <target_id>  (369) 
1

>  <reference_id>  (369) 
60

>  <inspiration_ids>  (369) 
[60, 46]

>  <energy_score>  (369) 
38.238551315141024

>  <distance_score>  (369) 
14.444908061225442

>  <path>  (369) 
/opt/xchem-fragalysis-2/maxwin/BulkDock/SCRATCH/511016/C33094-P60/C33094-P60.minimised.mol

>  <scratch_subdir>  (369) 
/opt/xchem-fragalysis-2/maxwin/BulkDock/SCRATCH/511016/C33094-P60

>  <fragmenstein_runtime>  (369) 
46.90376830101013

>  <fragmenstein_outcome>  (369) 
too moved

>  <fragmenstein_mode>  (369) 
expansion

>  <fragmenstein_error>  (369) 


$$$$
C33094-P46
     RDKit          3D

 47 48  0  0  0  0  0  0  0  0999 V2000
   -0.1107  -20.6787   22.9046 O   0  0  0  0  0  0  0  0  0  0  0  0
   -1.0094  -20.0198   22.4530 C   0  0  0  0  0  0  0  0  0  0  0  0
   -2.3969  -19.8642   22.9023 N   0  0  0  0  0  0  0  0  0  0  0  0
   -3.1098  -20.4017   24.1311 C   0  0  0  0  0  0  0  0  0  0  0  0
   -4.4835  -21.1762   23.9834 C   0  0  0  0  0  0  0  0  0  0  0  0
   -4.2835  -22.2493   23.0391 O   0  0  0  0  0  0  0  0  0  0  0  0
   -5.1085  -21.8182   25.3231 C   0  0  0  0  0  0  0  0  0  0  0  0
   -6.3640  -22.5137   24.9675 N   0  0  0  0  0  0  0  0  0  0  0  0
   -7.1237  -23.3968   25.9151 C   0  0  0  0  0  0  0  0  0  0  0  0
   -8.2322  -22.9728   27.3502 C   0  0  0  0  0  0  0  0  0  0  0  0
   -7.7577  -22.0780   27.9656 O   0  0  0  0  0  0  0  0  0  0  0  0
   -9.7307  -23.9074   27.8092 N   0  0  0  0  0  0  0  0  0  0  0  0
  -10.6169  -23.8401   29.1111 C   0  0  0  0  0  0  0  0  0  0  0  0
  -11.3914  -22.7499   29.8812 C   0  0  0  0  0  0  0  0  0  0  0  0
  -12.2643  -22.0884   28.8924 C   0  0  0  0  0  0  0  0  0  0  0  0
  -11.3445  -21.9523   27.7242 C   0  0  0  0  0  0  0  0  0  0  0  0
  -10.9415  -23.2913   27.2200 C   0  0  0  0  0  0  0  0  0  0  0  0
   -0.5362  -19.1156   21.2428 C   0  0  0  0  0  0  0  0  0  0  0  0
    0.8308  -19.0635   20.8931 C   0  0  0  0  0  0  0  0  0  0  0  0
    1.2877  -18.2447   19.8413 C   0  0  0  0  0  0  0  0  0  0  0  0
    0.3800  -17.4506   19.1706 C   0  0  0  0  0  0  0  0  0  0  0  0
   -0.9471  -17.5561   19.5616 C   0  0  0  0  0  0  0  0  0  0  0  0
   -1.4377  -18.3795   20.5494 N   0  0  0  0  0  0  0  0  0  0  0  0
   -2.8558  -19.1576   22.3265 H   0  0  0  0  0  0  0  0  0  0  0  0
   -3.2561  -19.5404   24.7911 H   0  0  0  0  0  0  0  0  0  0  0  0
   -2.3871  -21.0726   24.6094 H   0  0  0  0  0  0  0  0  0  0  0  0
   -5.2173  -20.4935   23.5385 H   0  0  0  0  0  0  0  0  0  0  0  0
   -3.6618  -21.9096   22.3673 H   0  0  0  0  0  0  0  0  0  0  0  0
   -4.3911  -22.5430   25.7228 H   0  0  0  0  0  0  0  0  0  0  0  0
   -5.2865  -21.0332   26.0637 H   0  0  0  0  0  0  0  0  0  0  0  0
   -6.1240  -23.0815   24.1455 H   0  0  0  0  0  0  0  0  0  0  0  0
   -6.2433  -23.7837   26.4175 H   0  0  0  0  0  0  0  0  0  0  0  0
   -7.5756  -24.0441   25.1806 H   0  0  0  0  0  0  0  0  0  0  0  0
   -9.9568  -24.3407   29.8376 H   0  0  0  0  0  0  0  0  0  0  0  0
  -11.3315  -24.6828   28.9995 H   0  0  0  0  0  0  0  0  0  0  0  0
  -10.8036  -21.9676   30.3652 H   0  0  0  0  0  0  0  0  0  0  0  0
  -11.9730  -23.2077   30.6867 H   0  0  0  0  0  0  0  0  0  0  0  0
  -13.1166  -22.7302   28.6575 H   0  0  0  0  0  0  0  0  0  0  0  0
  -12.5938  -21.1233   29.2674 H   0  0  0  0  0  0  0  0  0  0  0  0
  -11.7586  -21.4232   26.8930 H   0  0  0  0  0  0  0  0  0  0  0  0
  -10.4479  -21.4591   28.0871 H   0  0  0  0  0  0  0  0  0  0  0  0
  -11.7973  -23.9954   27.2624 H   0  0  0  0  0  0  0  0  0  0  0  0
  -10.8311  -23.3753   26.1423 H   0  0  0  0  0  0  0  0  0  0  0  0
    1.5487  -19.6576   21.4521 H   0  0  0  0  0  0  0  0  0  0  0  0
    2.3433  -18.2161   19.5889 H   0  0  0  0  0  0  0  0  0  0  0  0
    0.6846  -16.7915   18.3673 H   0  0  0  0  0  0  0  0  0  0  0  0
   -1.7106  -16.9680   19.0588 H   0  0  0  0  0  0  0  0  0  0  0  0
  1  2  2  0
  2  3  1  0
  3  4  1  0
  4  5  1  0
  5  6  1  0
  5  7  1  0
  7  8  1  0
  8  9  1  0
  9 10  1  0
 10 11  2  0
 10 12  1  0
 12 13  1  0
 13 14  1  0
 14 15  1  0
 15 16  1  0
 16 17  1  0
  2 18  1  0
 18 19  2  0
 19 20  1  0
 20 21  2  0
 21 22  1  0
 22 23  2  0
 17 12  1  0
 23 18  1  0
  3 24  1  0
  4 25  1  0
  4 26  1  0
  5 27  1  0
  6 28  1  0
  7 29  1  0
  7 30  1  0
  8 31  1  0
  9 32  1  0
  9 33  1  0
 13 34  1  0
 13 35  1  0
 14 36  1  0
 14 37  1  0
 15 38  1  0
 15 39  1  0
 16 40  1  0
 16 41  1  0
 17 42  1  0
 17 43  1  0
 19 44  1  0
 20 45  1  0
 21 46  1  0
 22 47  1  0
M  END
>  <Energy>  (370) 
337.18905470279134

>  <compound_id>  (370) 
33094

>  <target_id>  (370) 
1

>  <reference_id>  (370) 
46

>  <inspiration_ids>  (370) 
[60, 46]

>  <energy_score>  (370) 
191.45289811497247

>  <distance_score>  (370) 
13.950412411244164

>  <path>  (370) 
/opt/xchem-fragalysis-2/maxwin/BulkDock/SCRATCH/511016/C33094-P46/C33094-P46.minimised.mol

>  <scratch_subdir>  (370) 
/opt/xchem-fragalysis-2/maxwin/BulkDock/SCRATCH/511016/C33094-P46

>  <fragmenstein_runtime>  (370) 
48.50243878364563

>  <fragmenstein_outcome>  (370) 
too moved

>  <fragmenstein_mode>  (370) 
expansion

>  <fragmenstein_error>  (370) 


$$$$
C33097-P60
     RDKit          3D

 53 54  0  0  0  0  0  0  0  0999 V2000
   -9.9032  -20.7792   30.4949 O   0  0  0  0  0  0  0  0  0  0  0  0
  -10.1053  -20.4733   29.3162 C   0  0  0  0  0  0  0  0  0  0  0  0
  -11.2417  -21.4856   28.6830 C   0  0  0  0  0  0  0  0  0  0  0  0
  -11.6048  -22.6449   29.7137 C   0  0  0  0  0  0  0  0  0  0  0  0
  -11.8021  -22.5570   31.2828 C   0  0  0  0  0  0  0  0  0  0  0  0
  -12.9736  -21.8406   31.8443 N   0  0  0  0  0  0  0  0  0  0  0  0
  -14.2329  -22.5543   31.6450 C   0  0  0  0  0  0  0  0  0  0  0  0
  -14.9774  -23.0113   32.8988 C   0  0  0  0  0  0  0  0  0  0  0  0
  -15.3118  -21.8172   33.7584 C   0  0  0  0  0  0  0  0  0  0  0  0
  -14.1132  -20.8837   33.8575 C   0  0  0  0  0  0  0  0  0  0  0  0
  -12.8120  -21.4790   33.2607 C   0  0  0  0  0  0  0  0  0  0  0  0
   -9.1913  -19.0942   28.1094 N   0  0  0  0  0  0  0  0  0  0  0  0
   -7.5652  -17.8066   28.2653 C   0  0  0  0  0  0  0  0  0  0  0  0
   -5.9336  -16.7576   27.2041 C   0  0  0  0  0  0  0  0  0  0  0  0
   -6.7235  -15.8233   26.2410 C   0  0  0  0  0  0  0  0  0  0  0  0
   -6.3274  -14.4669   26.3985 O   0  0  0  0  0  0  0  0  0  0  0  0
   -4.0856  -16.6155   26.2397 N   0  0  0  0  0  0  0  0  0  0  0  0
   -3.0155  -15.0739   25.5986 C   0  0  0  0  0  0  0  0  0  0  0  0
   -3.4850  -14.0132   25.8894 O   0  0  0  0  0  0  0  0  0  0  0  0
   -1.2278  -14.7716   24.4982 C   0  0  0  0  0  0  0  0  0  0  0  0
    0.4952  -14.1357   24.5859 C   0  0  0  0  0  0  0  0  0  0  0  0
    1.9512  -13.0792   24.2513 C   0  0  0  0  0  0  0  0  0  0  0  0
    1.8174  -12.0356   23.5036 C   0  0  0  0  0  0  0  0  0  0  0  0
    0.4833  -12.3250   22.8602 N   0  0  0  0  0  0  0  0  0  0  0  0
   -0.4669  -13.8573   23.3309 C   0  0  0  0  0  0  0  0  0  0  0  0
  -12.1921  -20.9631   28.6416 H   0  0  0  0  0  0  0  0  0  0  0  0
  -10.9483  -21.9526   27.7420 H   0  0  0  0  0  0  0  0  0  0  0  0
  -10.9872  -23.5253   29.5025 H   0  0  0  0  0  0  0  0  0  0  0  0
  -12.5372  -22.9618   29.3343 H   0  0  0  0  0  0  0  0  0  0  0  0
  -10.8944  -22.1853   31.7556 H   0  0  0  0  0  0  0  0  0  0  0  0
  -11.8537  -23.5966   31.6409 H   0  0  0  0  0  0  0  0  0  0  0  0
  -14.9094  -21.9035   31.0813 H   0  0  0  0  0  0  0  0  0  0  0  0
  -14.0401  -23.4036   31.0236 H   0  0  0  0  0  0  0  0  0  0  0  0
  -15.9048  -23.5251   32.6213 H   0  0  0  0  0  0  0  0  0  0  0  0
  -14.3721  -23.7257   33.4700 H   0  0  0  0  0  0  0  0  0  0  0  0
  -15.6794  -22.1530   34.7287 H   0  0  0  0  0  0  0  0  0  0  0  0
  -16.1514  -21.2710   33.3078 H   0  0  0  0  0  0  0  0  0  0  0  0
  -13.9132  -20.5210   34.8639 H   0  0  0  0  0  0  0  0  0  0  0  0
  -14.4560  -19.9724   33.3760 H   0  0  0  0  0  0  0  0  0  0  0  0
  -12.4994  -22.3513   33.8449 H   0  0  0  0  0  0  0  0  0  0  0  0
  -12.0261  -20.7247   33.3507 H   0  0  0  0  0  0  0  0  0  0  0  0
   -9.6072  -19.0207   27.2742 H   0  0  0  0  0  0  0  0  0  0  0  0
   -8.1132  -16.8860   28.1600 H   0  0  0  0  0  0  0  0  0  0  0  0
   -7.5397  -18.1551   27.2184 H   0  0  0  0  0  0  0  0  0  0  0  0
   -5.5968  -16.1776   28.0771 H   0  0  0  0  0  0  0  0  0  0  0  0
   -6.5455  -16.1188   25.2022 H   0  0  0  0  0  0  0  0  0  0  0  0
   -7.8009  -15.8623   26.4094 H   0  0  0  0  0  0  0  0  0  0  0  0
   -5.3574  -14.4069   26.2578 H   0  0  0  0  0  0  0  0  0  0  0  0
   -3.5765  -17.4628   26.0259 H   0  0  0  0  0  0  0  0  0  0  0  0
    0.9065  -13.7578   25.6926 H   0  0  0  0  0  0  0  0  0  0  0  0
    2.9779  -13.3886   24.4445 H   0  0  0  0  0  0  0  0  0  0  0  0
    2.6758  -11.6047   23.0604 H   0  0  0  0  0  0  0  0  0  0  0  0
   -0.4100  -14.4039   22.3730 H   0  0  0  0  0  0  0  0  0  0  0  0
  1  2  2  0
  2  3  1  0
  3  4  1  0
  4  5  1  0
  5  6  1  0
  6  7  1  0
  7  8  1  0
  8  9  1  0
  9 10  1  0
 10 11  1  0
  2 12  1  0
 12 13  1  0
 13 14  1  0
 14 15  1  0
 15 16  1  0
 14 17  1  0
 17 18  1  0
 18 19  2  0
 18 20  1  0
 20 21  2  0
 21 22  1  0
 22 23  2  0
 23 24  1  0
 24 25  2  0
 11  6  1  0
 25 20  1  0
  3 26  1  0
  3 27  1  0
  4 28  1  0
  4 29  1  0
  5 30  1  0
  5 31  1  0
  7 32  1  0
  7 33  1  0
  8 34  1  0
  8 35  1  0
  9 36  1  0
  9 37  1  0
 10 38  1  0
 10 39  1  0
 11 40  1  0
 11 41  1  0
 12 42  1  0
 13 43  1  0
 13 44  1  0
 14 45  1  0
 15 46  1  0
 15 47  1  0
 16 48  1  0
 17 49  1  0
 21 50  1  0
 22 51  1  0
 23 52  1  0
 25 53  1  0
M  END
>  <Energy>  (371) 
1375.8485222679274

>  <compound_id>  (371) 
33097

>  <target_id>  (371) 
1

>  <reference_id>  (371) 
60

>  <inspiration_ids>  (371) 
[60, 46]

>  <energy_score>  (371) 
1301.8441382742456

>  <distance_score>  (371) 
11.435308129346621

>  <path>  (371) 
/opt/xchem-fragalysis-2/maxwin/BulkDock/SCRATCH/511016/C33097-P60/C33097-P60.minimised.mol

>  <scratch_subdir>  (371) 
/opt/xchem-fragalysis-2/maxwin/BulkDock/SCRATCH/511016/C33097-P60

>  <fragmenstein_runtime>  (371) 
54.64592790603638

>  <fragmenstein_outcome>  (371) 
too moved

>  <fragmenstein_mode>  (371) 
expansion

>  <fragmenstein_error>  (371) 


$$$$
C33097-P46
     RDKit          3D

 53 54  0  0  0  0  0  0  0  0999 V2000
   -4.4743  -20.9808   31.9361 O   0  0  0  0  0  0  0  0  0  0  0  0
   -5.3793  -20.1939   32.0673 C   0  0  0  0  0  0  0  0  0  0  0  0
   -6.9717  -20.9476   32.9607 C   0  0  0  0  0  0  0  0  0  0  0  0
   -8.0959  -22.4540   33.2099 C   0  0  0  0  0  0  0  0  0  0  0  0
   -9.4433  -23.3440   32.7454 C   0  0  0  0  0  0  0  0  0  0  0  0
  -10.7826  -22.9096   32.9990 N   0  0  0  0  0  0  0  0  0  0  0  0
  -11.6564  -24.0457   33.3355 C   0  0  0  0  0  0  0  0  0  0  0  0
  -12.7712  -23.4610   34.1624 C   0  0  0  0  0  0  0  0  0  0  0  0
  -13.4995  -22.3103   33.5238 C   0  0  0  0  0  0  0  0  0  0  0  0
  -12.6582  -21.5441   32.5329 C   0  0  0  0  0  0  0  0  0  0  0  0
  -11.4073  -22.1619   31.9432 C   0  0  0  0  0  0  0  0  0  0  0  0
   -5.4373  -18.7463   31.7557 N   0  0  0  0  0  0  0  0  0  0  0  0
   -4.3201  -17.7478   31.2558 C   0  0  0  0  0  0  0  0  0  0  0  0
   -3.1584  -18.1500   30.1998 C   0  0  0  0  0  0  0  0  0  0  0  0
   -3.5704  -17.6154   28.7910 C   0  0  0  0  0  0  0  0  0  0  0  0
   -3.0802  -18.4482   27.7363 O   0  0  0  0  0  0  0  0  0  0  0  0
   -1.6833  -17.6879   30.3009 N   0  0  0  0  0  0  0  0  0  0  0  0
   -0.5023  -18.0548   29.4981 C   0  0  0  0  0  0  0  0  0  0  0  0
   -0.3789  -18.8642   28.6189 O   0  0  0  0  0  0  0  0  0  0  0  0
    0.8195  -17.2478   29.6658 C   0  0  0  0  0  0  0  0  0  0  0  0
    1.2420  -16.4556   30.7266 C   0  0  0  0  0  0  0  0  0  0  0  0
    2.5128  -15.8054   30.6908 C   0  0  0  0  0  0  0  0  0  0  0  0
    3.3401  -15.9292   29.5802 C   0  0  0  0  0  0  0  0  0  0  0  0
    2.9893  -16.6748   28.5254 N   0  0  0  0  0  0  0  0  0  0  0  0
    1.7722  -17.3157   28.6118 C   0  0  0  0  0  0  0  0  0  0  0  0
   -7.4907  -20.1555   33.5463 H   0  0  0  0  0  0  0  0  0  0  0  0
   -6.3063  -21.1753   33.6989 H   0  0  0  0  0  0  0  0  0  0  0  0
   -8.1890  -22.6927   34.2215 H   0  0  0  0  0  0  0  0  0  0  0  0
   -7.5285  -23.2170   32.6835 H   0  0  0  0  0  0  0  0  0  0  0  0
   -9.3003  -24.2410   33.3698 H   0  0  0  0  0  0  0  0  0  0  0  0
   -9.3681  -23.8564   31.7799 H   0  0  0  0  0  0  0  0  0  0  0  0
  -11.9898  -24.5789   32.4430 H   0  0  0  0  0  0  0  0  0  0  0  0
  -11.1553  -24.7920   33.9657 H   0  0  0  0  0  0  0  0  0  0  0  0
  -12.3051  -23.1046   35.0801 H   0  0  0  0  0  0  0  0  0  0  0  0
  -13.4871  -24.2279   34.4428 H   0  0  0  0  0  0  0  0  0  0  0  0
  -13.8776  -21.6057   34.2702 H   0  0  0  0  0  0  0  0  0  0  0  0
  -14.4191  -22.6605   33.0514 H   0  0  0  0  0  0  0  0  0  0  0  0
  -13.3317  -21.3689   31.7057 H   0  0  0  0  0  0  0  0  0  0  0  0
  -12.3549  -20.6190   33.0298 H   0  0  0  0  0  0  0  0  0  0  0  0
  -10.7605  -21.3545   31.5849 H   0  0  0  0  0  0  0  0  0  0  0  0
  -11.6465  -22.7860   31.0727 H   0  0  0  0  0  0  0  0  0  0  0  0
   -6.3860  -18.4115   31.9138 H   0  0  0  0  0  0  0  0  0  0  0  0
   -4.9024  -16.9227   30.8290 H   0  0  0  0  0  0  0  0  0  0  0  0
   -3.8382  -17.3050   32.1237 H   0  0  0  0  0  0  0  0  0  0  0  0
   -3.0620  -19.2392   30.1906 H   0  0  0  0  0  0  0  0  0  0  0  0
   -4.6474  -17.5238   28.6696 H   0  0  0  0  0  0  0  0  0  0  0  0
   -3.1667  -16.6084   28.6282 H   0  0  0  0  0  0  0  0  0  0  0  0
   -2.1598  -18.7023   27.9558 H   0  0  0  0  0  0  0  0  0  0  0  0
   -1.4476  -16.9057   30.8982 H   0  0  0  0  0  0  0  0  0  0  0  0
    0.6255  -16.3427   31.6134 H   0  0  0  0  0  0  0  0  0  0  0  0
    2.8322  -15.2021   31.5360 H   0  0  0  0  0  0  0  0  0  0  0  0
    4.3036  -15.4352   29.5208 H   0  0  0  0  0  0  0  0  0  0  0  0
    1.5708  -17.9394   27.7422 H   0  0  0  0  0  0  0  0  0  0  0  0
  1  2  2  0
  2  3  1  0
  3  4  1  0
  4  5  1  0
  5  6  1  0
  6  7  1  0
  7  8  1  0
  8  9  1  0
  9 10  1  0
 10 11  1  0
  2 12  1  0
 12 13  1  0
 13 14  1  0
 14 15  1  0
 15 16  1  0
 14 17  1  0
 17 18  1  0
 18 19  2  0
 18 20  1  0
 20 21  2  0
 21 22  1  0
 22 23  2  0
 23 24  1  0
 24 25  2  0
 11  6  1  0
 25 20  1  0
  3 26  1  0
  3 27  1  0
  4 28  1  0
  4 29  1  0
  5 30  1  0
  5 31  1  0
  7 32  1  0
  7 33  1  0
  8 34  1  0
  8 35  1  0
  9 36  1  0
  9 37  1  0
 10 38  1  0
 10 39  1  0
 11 40  1  0
 11 41  1  0
 12 42  1  0
 13 43  1  0
 13 44  1  0
 14 45  1  0
 15 46  1  0
 15 47  1  0
 16 48  1  0
 17 49  1  0
 21 50  1  0
 22 51  1  0
 23 52  1  0
 25 53  1  0
M  END
>  <Energy>  (372) 
251.82025612030066

>  <compound_id>  (372) 
33097

>  <target_id>  (372) 
1

>  <reference_id>  (372) 
46

>  <inspiration_ids>  (372) 
[60, 46]

>  <energy_score>  (372) 
177.81587212661333

>  <distance_score>  (372) 
14.043338875864373

>  <path>  (372) 
/opt/xchem-fragalysis-2/maxwin/BulkDock/SCRATCH/511016/C33097-P46/C33097-P46.minimised.mol

>  <scratch_subdir>  (372) 
/opt/xchem-fragalysis-2/maxwin/BulkDock/SCRATCH/511016/C33097-P46

>  <fragmenstein_runtime>  (372) 
75.90579843521118

>  <fragmenstein_outcome>  (372) 
too moved

>  <fragmenstein_mode>  (372) 
expansion

>  <fragmenstein_error>  (372) 


$$$$
C33105-P60
     RDKit          3D

 48 50  0  0  0  0  0  0  0  0999 V2000
  -12.6692  -16.6752   29.2822 C   0  0  0  0  0  0  0  0  0  0  0  0
  -11.6577  -18.1190   28.7108 N   0  0  0  0  0  0  0  0  0  0  0  0
  -12.1648  -20.0534   29.0158 C   0  0  0  0  0  0  0  0  0  0  0  0
  -12.2892  -21.3877   30.1789 C   0  0  0  0  0  0  0  0  0  0  0  0
  -13.6098  -21.8982   31.0551 C   0  0  0  0  0  0  0  0  0  0  0  0
  -13.5130  -23.2284   31.7326 C   0  0  0  0  0  0  0  0  0  0  0  0
  -12.9204  -23.2062   33.0368 N   0  0  0  0  0  0  0  0  0  0  0  0
  -11.8186  -22.3275   33.0549 C   0  0  0  0  0  0  0  0  0  0  0  0
  -10.6967  -22.8944   32.1725 C   0  0  0  0  0  0  0  0  0  0  0  0
  -10.1467  -24.2739   32.4102 C   0  0  0  0  0  0  0  0  0  0  0  0
  -11.3043  -25.1659   32.7113 C   0  0  0  0  0  0  0  0  0  0  0  0
  -12.4445  -24.5095   33.5069 C   0  0  0  0  0  0  0  0  0  0  0  0
  -10.7119  -17.1957   27.4382 C   0  0  0  0  0  0  0  0  0  0  0  0
  -10.8738  -15.7776   27.1877 N   0  0  0  0  0  0  0  0  0  0  0  0
  -10.2755  -15.2568   26.0119 N   0  0  0  0  0  0  0  0  0  0  0  0
   -9.3654  -16.0715   25.5212 C   0  0  0  0  0  0  0  0  0  0  0  0
   -9.0411  -16.3062   24.0909 C   0  0  0  0  0  0  0  0  0  0  0  0
   -9.9242  -15.8945   23.0866 C   0  0  0  0  0  0  0  0  0  0  0  0
   -9.7120  -16.3039   21.7555 C   0  0  0  0  0  0  0  0  0  0  0  0
   -8.6630  -17.1639   21.4585 C   0  0  0  0  0  0  0  0  0  0  0  0
   -7.8810  -17.5888   22.5141 C   0  0  0  0  0  0  0  0  0  0  0  0
   -8.0249  -17.1498   23.7957 N   0  0  0  0  0  0  0  0  0  0  0  0
   -8.7091  -17.0168   26.8109 S   0  0  0  0  0  0  0  0  0  0  0  0
  -12.6168  -16.5485   30.3698 H   0  0  0  0  0  0  0  0  0  0  0  0
  -13.5679  -16.4180   28.6705 H   0  0  0  0  0  0  0  0  0  0  0  0
  -12.3279  -15.6474   28.9674 H   0  0  0  0  0  0  0  0  0  0  0  0
  -11.1048  -20.3779   29.2957 H   0  0  0  0  0  0  0  0  0  0  0  0
  -12.2931  -20.7166   28.1427 H   0  0  0  0  0  0  0  0  0  0  0  0
  -11.4931  -21.1611   30.8845 H   0  0  0  0  0  0  0  0  0  0  0  0
  -11.9964  -22.2596   29.5743 H   0  0  0  0  0  0  0  0  0  0  0  0
  -14.5431  -21.9848   30.5141 H   0  0  0  0  0  0  0  0  0  0  0  0
  -13.8983  -21.2216   31.8671 H   0  0  0  0  0  0  0  0  0  0  0  0
  -13.0161  -23.8999   31.0343 H   0  0  0  0  0  0  0  0  0  0  0  0
  -14.5597  -23.4707   31.9265 H   0  0  0  0  0  0  0  0  0  0  0  0
  -12.0462  -21.2904   32.7982 H   0  0  0  0  0  0  0  0  0  0  0  0
  -11.6810  -22.2150   34.1126 H   0  0  0  0  0  0  0  0  0  0  0  0
  -11.0339  -23.0161   31.1498 H   0  0  0  0  0  0  0  0  0  0  0  0
   -9.9511  -22.1296   32.1107 H   0  0  0  0  0  0  0  0  0  0  0  0
   -9.6400  -24.6410   31.5073 H   0  0  0  0  0  0  0  0  0  0  0  0
   -9.3774  -24.3465   33.1619 H   0  0  0  0  0  0  0  0  0  0  0  0
  -11.6418  -25.4467   31.7181 H   0  0  0  0  0  0  0  0  0  0  0  0
  -10.9509  -26.0604   33.2332 H   0  0  0  0  0  0  0  0  0  0  0  0
  -13.2918  -25.1773   33.6660 H   0  0  0  0  0  0  0  0  0  0  0  0
  -12.0158  -24.3430   34.4904 H   0  0  0  0  0  0  0  0  0  0  0  0
  -10.7813  -15.2706   23.3313 H   0  0  0  0  0  0  0  0  0  0  0  0
  -10.3861  -15.9703   20.9704 H   0  0  0  0  0  0  0  0  0  0  0  0
   -8.4798  -17.5142   20.4501 H   0  0  0  0  0  0  0  0  0  0  0  0
   -7.0623  -18.2847   22.3558 H   0  0  0  0  0  0  0  0  0  0  0  0
  1  2  1  0
  2  3  1  0
  3  4  1  0
  4  5  1  0
  5  6  1  0
  6  7  1  0
  7  8  1  0
  8  9  1  0
  9 10  1  0
 10 11  1  0
 11 12  1  0
  2 13  1  0
 13 14  2  0
 14 15  1  0
 15 16  2  0
 16 17  1  0
 17 18  2  0
 18 19  1  0
 19 20  2  0
 20 21  1  0
 21 22  2  0
 16 23  1  0
 12  7  1  0
 23 13  1  0
 22 17  1  0
  1 24  1  0
  1 25  1  0
  1 26  1  0
  3 27  1  0
  3 28  1  0
  4 29  1  0
  4 30  1  0
  5 31  1  0
  5 32  1  0
  6 33  1  0
  6 34  1  0
  8 35  1  0
  8 36  1  0
  9 37  1  0
  9 38  1  0
 10 39  1  0
 10 40  1  0
 11 41  1  0
 11 42  1  0
 12 43  1  0
 12 44  1  0
 18 45  1  0
 19 46  1  0
 20 47  1  0
 21 48  1  0
M  END
>  <Energy>  (373) 
475.07121420084195

>  <compound_id>  (373) 
33105

>  <target_id>  (373) 
1

>  <reference_id>  (373) 
60

>  <inspiration_ids>  (373) 
[60, 46]

>  <energy_score>  (373) 
338.7260339941307

>  <distance_score>  (373) 
15.659805972792382

>  <path>  (373) 
/opt/xchem-fragalysis-2/maxwin/BulkDock/SCRATCH/511016/C33105-P60/C33105-P60.minimised.mol

>  <scratch_subdir>  (373) 
/opt/xchem-fragalysis-2/maxwin/BulkDock/SCRATCH/511016/C33105-P60

>  <fragmenstein_runtime>  (373) 
24.703004121780396

>  <fragmenstein_outcome>  (373) 
too moved

>  <fragmenstein_mode>  (373) 
expansion

>  <fragmenstein_error>  (373) 


$$$$
C33105-P46
     RDKit          3D

 48 50  0  0  0  0  0  0  0  0999 V2000
   -7.8263  -15.6018   26.9594 C   0  0  0  0  0  0  0  0  0  0  0  0
   -9.1370  -15.1124   26.4155 N   0  0  0  0  0  0  0  0  0  0  0  0
  -10.2764  -16.7084   26.9380 C   0  0  0  0  0  0  0  0  0  0  0  0
  -11.4454  -17.8387   28.3998 C   0  0  0  0  0  0  0  0  0  0  0  0
  -12.2878  -19.7303   28.8517 C   0  0  0  0  0  0  0  0  0  0  0  0
  -11.5428  -21.0518   29.8579 C   0  0  0  0  0  0  0  0  0  0  0  0
  -12.0182  -21.2373   31.2338 N   0  0  0  0  0  0  0  0  0  0  0  0
  -12.9732  -22.2761   31.4679 C   0  0  0  0  0  0  0  0  0  0  0  0
  -13.5532  -22.3853   32.9127 C   0  0  0  0  0  0  0  0  0  0  0  0
  -13.5939  -21.0497   33.5652 C   0  0  0  0  0  0  0  0  0  0  0  0
  -12.1538  -20.5944   33.6143 C   0  0  0  0  0  0  0  0  0  0  0  0
  -11.2310  -21.0561   32.4163 C   0  0  0  0  0  0  0  0  0  0  0  0
   -8.3725  -14.0587   25.1088 C   0  0  0  0  0  0  0  0  0  0  0  0
   -7.3078  -14.3048   24.3058 N   0  0  0  0  0  0  0  0  0  0  0  0
   -6.1055  -13.1723   23.5922 N   0  0  0  0  0  0  0  0  0  0  0  0
   -6.1594  -11.8641   23.0489 C   0  0  0  0  0  0  0  0  0  0  0  0
   -4.7647  -10.5575   22.0987 C   0  0  0  0  0  0  0  0  0  0  0  0
   -3.5940   -9.6850   22.5325 C   0  0  0  0  0  0  0  0  0  0  0  0
   -2.4753   -9.1856   21.7697 C   0  0  0  0  0  0  0  0  0  0  0  0
   -2.2347   -9.7063   20.5273 C   0  0  0  0  0  0  0  0  0  0  0  0
   -3.0697  -10.7247   20.1141 C   0  0  0  0  0  0  0  0  0  0  0  0
   -4.2600  -11.1255   20.7567 N   0  0  0  0  0  0  0  0  0  0  0  0
   -7.7803  -11.9331   24.6267 S   0  0  0  0  0  0  0  0  0  0  0  0
   -7.3107  -16.1073   26.1454 H   0  0  0  0  0  0  0  0  0  0  0  0
   -7.8686  -16.3316   27.7612 H   0  0  0  0  0  0  0  0  0  0  0  0
   -7.2772  -14.7374   27.3384 H   0  0  0  0  0  0  0  0  0  0  0  0
   -9.3662  -17.2915   26.9569 H   0  0  0  0  0  0  0  0  0  0  0  0
  -10.8225  -15.8160   27.2806 H   0  0  0  0  0  0  0  0  0  0  0  0
  -10.8514  -18.0043   29.2410 H   0  0  0  0  0  0  0  0  0  0  0  0
  -12.1791  -17.2394   28.9827 H   0  0  0  0  0  0  0  0  0  0  0  0
  -13.2895  -19.6595   29.1999 H   0  0  0  0  0  0  0  0  0  0  0  0
  -12.2818  -20.5167   28.0625 H   0  0  0  0  0  0  0  0  0  0  0  0
  -11.7553  -21.9754   29.2980 H   0  0  0  0  0  0  0  0  0  0  0  0
  -10.4705  -20.9539   29.8083 H   0  0  0  0  0  0  0  0  0  0  0  0
  -13.8049  -22.0767   30.7877 H   0  0  0  0  0  0  0  0  0  0  0  0
  -12.4495  -23.2056   31.2147 H   0  0  0  0  0  0  0  0  0  0  0  0
  -12.9517  -23.0880   33.5047 H   0  0  0  0  0  0  0  0  0  0  0  0
  -14.5875  -22.7399   32.9352 H   0  0  0  0  0  0  0  0  0  0  0  0
  -14.0223  -21.0951   34.5632 H   0  0  0  0  0  0  0  0  0  0  0  0
  -14.2978  -20.4178   33.0261 H   0  0  0  0  0  0  0  0  0  0  0  0
  -12.0669  -19.5219   33.8084 H   0  0  0  0  0  0  0  0  0  0  0  0
  -11.8397  -21.0839   34.5267 H   0  0  0  0  0  0  0  0  0  0  0  0
  -10.4377  -20.3251   32.2764 H   0  0  0  0  0  0  0  0  0  0  0  0
  -10.7361  -22.0067   32.6568 H   0  0  0  0  0  0  0  0  0  0  0  0
   -3.4354   -9.5282   23.5753 H   0  0  0  0  0  0  0  0  0  0  0  0
   -1.7827   -8.4797   22.2193 H   0  0  0  0  0  0  0  0  0  0  0  0
   -1.4217   -9.3376   19.9258 H   0  0  0  0  0  0  0  0  0  0  0  0
   -2.8900  -11.2364   19.1726 H   0  0  0  0  0  0  0  0  0  0  0  0
  1  2  1  0
  2  3  1  0
  3  4  1  0
  4  5  1  0
  5  6  1  0
  6  7  1  0
  7  8  1  0
  8  9  1  0
  9 10  1  0
 10 11  1  0
 11 12  1  0
  2 13  1  0
 13 14  2  0
 14 15  1  0
 15 16  2  0
 16 17  1  0
 17 18  2  0
 18 19  1  0
 19 20  2  0
 20 21  1  0
 21 22  2  0
 16 23  1  0
 12  7  1  0
 23 13  1  0
 22 17  1  0
  1 24  1  0
  1 25  1  0
  1 26  1  0
  3 27  1  0
  3 28  1  0
  4 29  1  0
  4 30  1  0
  5 31  1  0
  5 32  1  0
  6 33  1  0
  6 34  1  0
  8 35  1  0
  8 36  1  0
  9 37  1  0
  9 38  1  0
 10 39  1  0
 10 40  1  0
 11 41  1  0
 11 42  1  0
 12 43  1  0
 12 44  1  0
 18 45  1  0
 19 46  1  0
 20 47  1  0
 21 48  1  0
M  END
>  <Energy>  (374) 
1115.0719746461602

>  <compound_id>  (374) 
33105

>  <target_id>  (374) 
1

>  <reference_id>  (374) 
46

>  <inspiration_ids>  (374) 
[60, 46]

>  <energy_score>  (374) 
978.7267944394417

>  <distance_score>  (374) 
12.220229228471418

>  <path>  (374) 
/opt/xchem-fragalysis-2/maxwin/BulkDock/SCRATCH/511016/C33105-P46/C33105-P46.minimised.mol

>  <scratch_subdir>  (374) 
/opt/xchem-fragalysis-2/maxwin/BulkDock/SCRATCH/511016/C33105-P46

>  <fragmenstein_runtime>  (374) 
23.313281059265137

>  <fragmenstein_outcome>  (374) 
too moved

>  <fragmenstein_mode>  (374) 
expansion

>  <fragmenstein_error>  (374) 


$$$$
C33106-P60
     RDKit          3D

 46 49  0  0  0  0  0  0  0  0999 V2000
  -11.3933  -14.7203   27.5145 C   0  0  0  0  0  0  0  0  0  0  0  0
  -12.3728  -14.9609   28.5456 C   0  0  0  0  0  0  0  0  0  0  0  0
  -12.6885  -16.3679   29.2102 C   0  0  0  0  0  0  0  0  0  0  0  0
  -11.9592  -17.8676   28.7963 C   0  0  0  0  0  0  0  0  0  0  0  0
  -12.5809  -19.7170   29.1172 C   0  0  0  0  0  0  0  0  0  0  0  0
  -14.0290  -19.6662   29.2686 N   0  0  0  0  0  0  0  0  0  0  0  0
  -14.9018  -20.6763   30.4654 N   0  0  0  0  0  0  0  0  0  0  0  0
  -14.0753  -21.6222   31.0366 C   0  0  0  0  0  0  0  0  0  0  0  0
  -14.3825  -21.8468   32.3855 N   0  0  0  0  0  0  0  0  0  0  0  0
  -15.5296  -20.9394   32.7420 C   0  0  0  0  0  0  0  0  0  0  0  0
  -15.8574  -20.9855   34.1856 C   0  0  0  0  0  0  0  0  0  0  0  0
  -16.4659  -22.3330   34.4434 C   0  0  0  0  0  0  0  0  0  0  0  0
  -15.5446  -23.4906   34.0213 C   0  0  0  0  0  0  0  0  0  0  0  0
  -16.2714  -24.7866   34.0603 N   0  0  0  0  0  0  0  0  0  0  0  0
  -17.4207  -24.8727   34.9616 C   0  0  0  0  0  0  0  0  0  0  0  0
  -17.9555  -26.2955   35.0606 C   0  0  0  0  0  0  0  0  0  0  0  0
  -16.9334  -27.2437   35.6723 C   0  0  0  0  0  0  0  0  0  0  0  0
  -15.5152  -26.7335   35.4986 C   0  0  0  0  0  0  0  0  0  0  0  0
  -15.3630  -25.9414   34.2018 C   0  0  0  0  0  0  0  0  0  0  0  0
  -14.8025  -23.2303   32.6690 C   0  0  0  0  0  0  0  0  0  0  0  0
  -12.1063  -21.5185   30.1457 S   0  0  0  0  0  0  0  0  0  0  0  0
  -10.9123  -17.4022   27.6474 N   0  0  0  0  0  0  0  0  0  0  0  0
  -10.6595  -15.8494   27.1119 C   0  0  0  0  0  0  0  0  0  0  0  0
  -11.1936  -13.7288   27.1326 H   0  0  0  0  0  0  0  0  0  0  0  0
  -12.9049  -14.1109   28.9768 H   0  0  0  0  0  0  0  0  0  0  0  0
  -13.1945  -16.1968   30.1593 H   0  0  0  0  0  0  0  0  0  0  0  0
  -16.4290  -21.1783   32.1518 H   0  0  0  0  0  0  0  0  0  0  0  0
  -15.2870  -19.8984   32.5577 H   0  0  0  0  0  0  0  0  0  0  0  0
  -14.9412  -20.7762   34.7280 H   0  0  0  0  0  0  0  0  0  0  0  0
  -16.5785  -20.2019   34.4451 H   0  0  0  0  0  0  0  0  0  0  0  0
  -17.4090  -22.3826   33.8821 H   0  0  0  0  0  0  0  0  0  0  0  0
  -16.7293  -22.3972   35.5044 H   0  0  0  0  0  0  0  0  0  0  0  0
  -14.7482  -23.5510   34.7483 H   0  0  0  0  0  0  0  0  0  0  0  0
  -18.2407  -24.2524   34.5842 H   0  0  0  0  0  0  0  0  0  0  0  0
  -17.1777  -24.5258   35.9722 H   0  0  0  0  0  0  0  0  0  0  0  0
  -18.8750  -26.3133   35.6575 H   0  0  0  0  0  0  0  0  0  0  0  0
  -18.2343  -26.6525   34.0603 H   0  0  0  0  0  0  0  0  0  0  0  0
  -17.1375  -27.3818   36.7409 H   0  0  0  0  0  0  0  0  0  0  0  0
  -17.0408  -28.2322   35.2097 H   0  0  0  0  0  0  0  0  0  0  0  0
  -14.8230  -27.5803   35.5075 H   0  0  0  0  0  0  0  0  0  0  0  0
  -15.2645  -26.1180   36.3642 H   0  0  0  0  0  0  0  0  0  0  0  0
  -15.5997  -26.6359   33.3875 H   0  0  0  0  0  0  0  0  0  0  0  0
  -14.3136  -25.6607   34.0838 H   0  0  0  0  0  0  0  0  0  0  0  0
  -15.5066  -23.5064   31.8792 H   0  0  0  0  0  0  0  0  0  0  0  0
  -13.8772  -23.8074   32.6752 H   0  0  0  0  0  0  0  0  0  0  0  0
   -9.8383  -15.8310   26.3926 H   0  0  0  0  0  0  0  0  0  0  0  0
  1  2  2  0
  2  3  1  0
  3  4  2  0
  4  5  1  0
  5  6  2  0
  6  7  1  0
  7  8  2  0
  8  9  1  0
  9 10  1  0
 10 11  1  0
 11 12  1  0
 12 13  1  0
 13 14  1  0
 14 15  1  0
 15 16  1  0
 16 17  1  0
 17 18  1  0
 18 19  1  0
 13 20  1  0
  8 21  1  0
  4 22  1  0
 22 23  2  0
 23  1  1  0
 21  5  1  0
 20  9  1  0
 19 14  1  0
  1 24  1  0
  2 25  1  0
  3 26  1  0
 10 27  1  0
 10 28  1  0
 11 29  1  0
 11 30  1  0
 12 31  1  0
 12 32  1  0
 13 33  1  0
 15 34  1  0
 15 35  1  0
 16 36  1  0
 16 37  1  0
 17 38  1  0
 17 39  1  0
 18 40  1  0
 18 41  1  0
 19 42  1  0
 19 43  1  0
 20 44  1  0
 20 45  1  0
 23 46  1  0
M  END
>  <Energy>  (375) 
426.8265570330405

>  <compound_id>  (375) 
33106

>  <target_id>  (375) 
1

>  <reference_id>  (375) 
60

>  <inspiration_ids>  (375) 
[60, 46]

>  <energy_score>  (375) 
272.82135527207333

>  <distance_score>  (375) 
17.77943171149369

>  <path>  (375) 
/opt/xchem-fragalysis-2/maxwin/BulkDock/SCRATCH/511016/C33106-P60/C33106-P60.minimised.mol

>  <scratch_subdir>  (375) 
/opt/xchem-fragalysis-2/maxwin/BulkDock/SCRATCH/511016/C33106-P60

>  <fragmenstein_runtime>  (375) 
23.464112758636475

>  <fragmenstein_outcome>  (375) 
too moved

>  <fragmenstein_mode>  (375) 
expansion

>  <fragmenstein_error>  (375) 


$$$$
C33106-P46
     RDKit          3D

 46 49  0  0  0  0  0  0  0  0999 V2000
    3.4021  -13.1417   23.5175 C   0  0  0  0  0  0  0  0  0  0  0  0
    2.5640  -13.0916   24.5925 C   0  0  0  0  0  0  0  0  0  0  0  0
    1.0918  -13.4915   25.4798 C   0  0  0  0  0  0  0  0  0  0  0  0
   -0.2126  -14.1936   24.5265 C   0  0  0  0  0  0  0  0  0  0  0  0
   -1.9096  -14.7751   25.5143 C   0  0  0  0  0  0  0  0  0  0  0  0
   -2.6550  -16.0509   25.3752 N   0  0  0  0  0  0  0  0  0  0  0  0
   -2.6167  -17.2219   26.8149 N   0  0  0  0  0  0  0  0  0  0  0  0
   -3.3981  -16.9813   28.0510 C   0  0  0  0  0  0  0  0  0  0  0  0
   -5.0650  -17.1963   28.6895 N   0  0  0  0  0  0  0  0  0  0  0  0
   -5.7315  -17.5134   27.4026 C   0  0  0  0  0  0  0  0  0  0  0  0
   -7.0745  -16.8962   27.1649 C   0  0  0  0  0  0  0  0  0  0  0  0
   -8.1875  -17.7025   27.7417 C   0  0  0  0  0  0  0  0  0  0  0  0
   -8.0931  -18.9426   28.8612 C   0  0  0  0  0  0  0  0  0  0  0  0
   -9.7787  -20.2330   29.1671 N   0  0  0  0  0  0  0  0  0  0  0  0
  -10.2692  -21.5982   28.3665 C   0  0  0  0  0  0  0  0  0  0  0  0
  -11.5343  -22.4193   28.7730 C   0  0  0  0  0  0  0  0  0  0  0  0
  -11.3725  -23.2108   30.0441 C   0  0  0  0  0  0  0  0  0  0  0  0
  -11.0104  -22.2786   31.1771 C   0  0  0  0  0  0  0  0  0  0  0  0
  -10.5225  -20.8680   30.6752 C   0  0  0  0  0  0  0  0  0  0  0  0
   -6.2968  -18.1564   29.9244 C   0  0  0  0  0  0  0  0  0  0  0  0
   -2.0085  -15.3187   27.7881 S   0  0  0  0  0  0  0  0  0  0  0  0
    1.0000  -14.3963   23.4842 N   0  0  0  0  0  0  0  0  0  0  0  0
    2.7590  -14.2103   23.2465 C   0  0  0  0  0  0  0  0  0  0  0  0
    4.4696  -13.0491   23.4555 H   0  0  0  0  0  0  0  0  0  0  0  0
    3.3120  -13.7337   25.2854 H   0  0  0  0  0  0  0  0  0  0  0  0
    0.9715  -13.0637   26.4456 H   0  0  0  0  0  0  0  0  0  0  0  0
   -6.1868  -18.4098   26.8876 H   0  0  0  0  0  0  0  0  0  0  0  0
   -4.9783  -18.2828   27.1802 H   0  0  0  0  0  0  0  0  0  0  0  0
   -7.1156  -15.8669   27.5675 H   0  0  0  0  0  0  0  0  0  0  0  0
   -7.3213  -16.7140   26.1112 H   0  0  0  0  0  0  0  0  0  0  0  0
   -9.0494  -17.6507   27.0891 H   0  0  0  0  0  0  0  0  0  0  0  0
   -8.2803  -16.9017   28.3951 H   0  0  0  0  0  0  0  0  0  0  0  0
   -7.7891  -19.6917   28.1287 H   0  0  0  0  0  0  0  0  0  0  0  0
   -9.4651  -22.3378   28.3312 H   0  0  0  0  0  0  0  0  0  0  0  0
  -10.6482  -21.3361   27.3915 H   0  0  0  0  0  0  0  0  0  0  0  0
  -11.7571  -23.1260   27.9619 H   0  0  0  0  0  0  0  0  0  0  0  0
  -12.4052  -21.7625   28.8365 H   0  0  0  0  0  0  0  0  0  0  0  0
  -12.2790  -23.7550   30.2709 H   0  0  0  0  0  0  0  0  0  0  0  0
  -10.6281  -24.0043   29.9062 H   0  0  0  0  0  0  0  0  0  0  0  0
  -10.3301  -22.7535   31.8907 H   0  0  0  0  0  0  0  0  0  0  0  0
  -11.9211  -22.1105   31.7735 H   0  0  0  0  0  0  0  0  0  0  0  0
  -11.5350  -20.6597   30.3664 H   0  0  0  0  0  0  0  0  0  0  0  0
  -10.2923  -20.3109   31.5865 H   0  0  0  0  0  0  0  0  0  0  0  0
   -5.6379  -18.8187   30.5470 H   0  0  0  0  0  0  0  0  0  0  0  0
   -6.2923  -17.5718   30.8722 H   0  0  0  0  0  0  0  0  0  0  0  0
    3.3385  -15.0019   22.7896 H   0  0  0  0  0  0  0  0  0  0  0  0
  1  2  2  0
  2  3  1  0
  3  4  2  0
  4  5  1  0
  5  6  2  0
  6  7  1  0
  7  8  2  0
  8  9  1  0
  9 10  1  0
 10 11  1  0
 11 12  1  0
 12 13  1  0
 13 14  1  0
 14 15  1  0
 15 16  1  0
 16 17  1  0
 17 18  1  0
 18 19  1  0
 13 20  1  0
  8 21  1  0
  4 22  1  0
 22 23  2  0
 23  1  1  0
 21  5  1  0
 20  9  1  0
 19 14  1  0
  1 24  1  0
  2 25  1  0
  3 26  1  0
 10 27  1  0
 10 28  1  0
 11 29  1  0
 11 30  1  0
 12 31  1  0
 12 32  1  0
 13 33  1  0
 15 34  1  0
 15 35  1  0
 16 36  1  0
 16 37  1  0
 17 38  1  0
 17 39  1  0
 18 40  1  0
 18 41  1  0
 19 42  1  0
 19 43  1  0
 20 44  1  0
 20 45  1  0
 23 46  1  0
M  END
>  <Energy>  (376) 
1520.51511123043

>  <compound_id>  (376) 
33106

>  <target_id>  (376) 
1

>  <reference_id>  (376) 
46

>  <inspiration_ids>  (376) 
[60, 46]

>  <energy_score>  (376) 
1366.5099094694651

>  <distance_score>  (376) 
12.337253695829931

>  <path>  (376) 
/opt/xchem-fragalysis-2/maxwin/BulkDock/SCRATCH/511016/C33106-P46/C33106-P46.minimised.mol

>  <scratch_subdir>  (376) 
/opt/xchem-fragalysis-2/maxwin/BulkDock/SCRATCH/511016/C33106-P46

>  <fragmenstein_runtime>  (376) 
26.434470176696777

>  <fragmenstein_outcome>  (376) 
too moved

>  <fragmenstein_mode>  (376) 
expansion

>  <fragmenstein_error>  (376) 


$$$$
C33110-P60
     RDKit          3D

 46 49  0  0  0  0  0  0  0  0999 V2000
   -1.2574   -8.3384   18.4334 O   0  0  0  0  0  0  0  0  0  0  0  0
   -0.5301   -8.4748   19.3960 C   0  0  0  0  0  0  0  0  0  0  0  0
   -1.2404   -9.1079   20.9091 C   0  0  0  0  0  0  0  0  0  0  0  0
   -2.3851  -10.0200   21.0208 C   0  0  0  0  0  0  0  0  0  0  0  0
   -2.7708  -10.6738   22.2793 C   0  0  0  0  0  0  0  0  0  0  0  0
   -3.8609  -11.6070   22.4394 N   0  0  0  0  0  0  0  0  0  0  0  0
   -3.4004  -13.0075   22.6932 C   0  0  0  0  0  0  0  0  0  0  0  0
   -4.5563  -13.9167   23.1511 C   0  0  0  0  0  0  0  0  0  0  0  0
   -5.1464  -13.4828   24.4916 C   0  0  0  0  0  0  0  0  0  0  0  0
   -4.9637  -11.9850   24.7192 C   0  0  0  0  0  0  0  0  0  0  0  0
   -4.9261  -11.1741   23.4068 C   0  0  0  0  0  0  0  0  0  0  0  0
   -1.9827  -10.3696   23.3795 C   0  0  0  0  0  0  0  0  0  0  0  0
   -0.9031   -9.5115   23.2000 C   0  0  0  0  0  0  0  0  0  0  0  0
   -0.5037   -8.9026   22.0346 N   0  0  0  0  0  0  0  0  0  0  0  0
    1.0584   -8.2807   19.5266 N   0  0  0  0  0  0  0  0  0  0  0  0
    1.5241   -7.0749   19.8691 C   0  0  0  0  0  0  0  0  0  0  0  0
    2.0305   -8.8003   18.9614 C   0  0  0  0  0  0  0  0  0  0  0  0
    3.0845   -9.1184   18.0396 C   0  0  0  0  0  0  0  0  0  0  0  0
    2.4740   -7.8820   18.1144 C   0  0  0  0  0  0  0  0  0  0  0  0
    4.3127   -6.9727   18.1560 C   0  0  0  0  0  0  0  0  0  0  0  0
    4.4097   -5.8838   19.1735 N   0  0  0  0  0  0  0  0  0  0  0  0
    2.6779   -5.9224   19.9044 C   0  0  0  0  0  0  0  0  0  0  0  0
   -2.9372  -10.2476   20.1127 H   0  0  0  0  0  0  0  0  0  0  0  0
   -2.6053  -13.0380   23.4489 H   0  0  0  0  0  0  0  0  0  0  0  0
   -2.9828  -13.4050   21.7604 H   0  0  0  0  0  0  0  0  0  0  0  0
   -4.2129  -14.9551   23.2195 H   0  0  0  0  0  0  0  0  0  0  0  0
   -5.3455  -13.8960   22.3885 H   0  0  0  0  0  0  0  0  0  0  0  0
   -6.2105  -13.7449   24.5170 H   0  0  0  0  0  0  0  0  0  0  0  0
   -4.6698  -14.0322   25.3119 H   0  0  0  0  0  0  0  0  0  0  0  0
   -4.0295  -11.8220   25.2692 H   0  0  0  0  0  0  0  0  0  0  0  0
   -5.7683  -11.6112   25.3628 H   0  0  0  0  0  0  0  0  0  0  0  0
   -4.8349  -10.1050   23.6365 H   0  0  0  0  0  0  0  0  0  0  0  0
   -5.8891  -11.2924   22.8944 H   0  0  0  0  0  0  0  0  0  0  0  0
   -2.1706  -10.7873   24.3595 H   0  0  0  0  0  0  0  0  0  0  0  0
   -0.2680   -9.2686   24.0508 H   0  0  0  0  0  0  0  0  0  0  0  0
    1.1222   -7.0852   20.9032 H   0  0  0  0  0  0  0  0  0  0  0  0
    2.0621   -9.5880   19.7144 H   0  0  0  0  0  0  0  0  0  0  0  0
    1.1774   -9.1848   18.0616 H   0  0  0  0  0  0  0  0  0  0  0  0
    4.1061   -9.0980   18.3675 H   0  0  0  0  0  0  0  0  0  0  0  0
    2.9590   -9.7845   17.2131 H   0  0  0  0  0  0  0  0  0  0  0  0
    1.9586   -7.9418   17.0706 H   0  0  0  0  0  0  0  0  0  0  0  0
    4.6405   -6.5134   17.1994 H   0  0  0  0  0  0  0  0  0  0  0  0
    5.1686   -7.6036   18.4302 H   0  0  0  0  0  0  0  0  0  0  0  0
    4.5391   -4.9302   18.8680 H   0  0  0  0  0  0  0  0  0  0  0  0
    2.2992   -5.0378   19.4502 H   0  0  0  0  0  0  0  0  0  0  0  0
    2.5293   -5.4863   20.8653 H   0  0  0  0  0  0  0  0  0  0  0  0
  1  2  2  0
  2  3  1  0
  3  4  2  0
  4  5  1  0
  5  6  1  0
  6  7  1  0
  7  8  1  0
  8  9  1  0
  9 10  1  0
 10 11  1  0
  5 12  2  0
 12 13  1  0
 13 14  2  0
  2 15  1  0
 15 16  1  0
 16 17  1  0
 17 18  1  0
 18 19  1  0
 19 20  1  0
 20 21  1  0
 21 22  1  0
 14  3  1  0
 19 15  1  0
 11  6  1  0
 22 16  1  0
  4 23  1  0
  7 24  1  0
  7 25  1  0
  8 26  1  0
  8 27  1  0
  9 28  1  0
  9 29  1  0
 10 30  1  0
 10 31  1  0
 11 32  1  0
 11 33  1  0
 12 34  1  0
 13 35  1  0
 16 36  1  0
 17 37  1  0
 17 38  1  0
 18 39  1  0
 18 40  1  0
 19 41  1  0
 20 42  1  0
 20 43  1  0
 21 44  1  0
 22 45  1  0
 22 46  1  0
M  END
>  <Energy>  (377) 
924.18899873640999

>  <compound_id>  (377) 
33110

>  <target_id>  (377) 
1

>  <reference_id>  (377) 
60

>  <inspiration_ids>  (377) 
[60, 46]

>  <energy_score>  (377) 
755.3678281796599

>  <distance_score>  (377) 
16.020578334824755

>  <path>  (377) 
/opt/xchem-fragalysis-2/maxwin/BulkDock/SCRATCH/511016/C33110-P60/C33110-P60.minimised.mol

>  <scratch_subdir>  (377) 
/opt/xchem-fragalysis-2/maxwin/BulkDock/SCRATCH/511016/C33110-P60

>  <fragmenstein_runtime>  (377) 
30.840816259384155

>  <fragmenstein_outcome>  (377) 
too moved

>  <fragmenstein_mode>  (377) 
expansion

>  <fragmenstein_error>  (377) 


$$$$
C33110-P46
     RDKit          3D

 46 49  0  0  0  0  0  0  0  0999 V2000
    6.4698  -12.0943   21.6192 O   0  0  0  0  0  0  0  0  0  0  0  0
    5.5685  -11.9482   20.8262 C   0  0  0  0  0  0  0  0  0  0  0  0
    4.2194  -12.9609   21.2900 C   0  0  0  0  0  0  0  0  0  0  0  0
    3.5525  -13.0017   22.6121 C   0  0  0  0  0  0  0  0  0  0  0  0
    2.5309  -13.9929   22.9917 C   0  0  0  0  0  0  0  0  0  0  0  0
    1.7620  -13.9468   24.2085 N   0  0  0  0  0  0  0  0  0  0  0  0
    2.1515  -14.9724   25.2282 C   0  0  0  0  0  0  0  0  0  0  0  0
    1.0328  -15.9792   25.5655 C   0  0  0  0  0  0  0  0  0  0  0  0
   -0.2477  -15.3094   26.0589 C   0  0  0  0  0  0  0  0  0  0  0  0
   -0.4726  -13.9677   25.3653 C   0  0  0  0  0  0  0  0  0  0  0  0
    0.2763  -13.8651   24.0209 C   0  0  0  0  0  0  0  0  0  0  0  0
    2.3430  -15.0301   22.0897 C   0  0  0  0  0  0  0  0  0  0  0  0
    3.1047  -15.0246   20.9195 C   0  0  0  0  0  0  0  0  0  0  0  0
    4.0053  -14.0533   20.4987 N   0  0  0  0  0  0  0  0  0  0  0  0
    5.5626  -11.0073   19.3257 N   0  0  0  0  0  0  0  0  0  0  0  0
    5.0346   -9.0187   19.0477 C   0  0  0  0  0  0  0  0  0  0  0  0
    4.6053   -7.5267   18.2343 C   0  0  0  0  0  0  0  0  0  0  0  0
    5.2218   -8.8308   17.9978 C   0  0  0  0  0  0  0  0  0  0  0  0
    6.4896  -10.3977   18.7458 C   0  0  0  0  0  0  0  0  0  0  0  0
    8.0350  -10.3174   18.8062 C   0  0  0  0  0  0  0  0  0  0  0  0
    8.4034   -8.9676   19.0038 N   0  0  0  0  0  0  0  0  0  0  0  0
    6.7753   -7.9081   19.6405 C   0  0  0  0  0  0  0  0  0  0  0  0
    3.8154  -12.2269   23.3304 H   0  0  0  0  0  0  0  0  0  0  0  0
    3.0483  -15.5209   24.9132 H   0  0  0  0  0  0  0  0  0  0  0  0
    2.4266  -14.4305   26.1415 H   0  0  0  0  0  0  0  0  0  0  0  0
    1.3886  -16.6894   26.3205 H   0  0  0  0  0  0  0  0  0  0  0  0
    0.8057  -16.5685   24.6680 H   0  0  0  0  0  0  0  0  0  0  0  0
   -0.2005  -15.1512   27.1427 H   0  0  0  0  0  0  0  0  0  0  0  0
   -1.0967  -15.9786   25.8767 H   0  0  0  0  0  0  0  0  0  0  0  0
   -1.5453  -13.8054   25.2115 H   0  0  0  0  0  0  0  0  0  0  0  0
   -0.1232  -13.1623   26.0240 H   0  0  0  0  0  0  0  0  0  0  0  0
   -0.0847  -14.6509   23.3465 H   0  0  0  0  0  0  0  0  0  0  0  0
    0.0422  -12.8993   23.5573 H   0  0  0  0  0  0  0  0  0  0  0  0
    1.6568  -15.8453   22.2824 H   0  0  0  0  0  0  0  0  0  0  0  0
    3.0096  -15.8505   20.2148 H   0  0  0  0  0  0  0  0  0  0  0  0
    3.7133   -9.1602   18.7250 H   0  0  0  0  0  0  0  0  0  0  0  0
    4.9315   -6.4806   18.4616 H   0  0  0  0  0  0  0  0  0  0  0  0
    3.5418   -7.5765   17.9659 H   0  0  0  0  0  0  0  0  0  0  0  0
    5.8106   -7.6557   18.1106 H   0  0  0  0  0  0  0  0  0  0  0  0
    5.6658   -7.8300   17.1575 H   0  0  0  0  0  0  0  0  0  0  0  0
    6.5319  -11.2358   18.1518 H   0  0  0  0  0  0  0  0  0  0  0  0
    8.1832  -11.0631   19.5153 H   0  0  0  0  0  0  0  0  0  0  0  0
    8.5837  -10.5528   17.8822 H   0  0  0  0  0  0  0  0  0  0  0  0
    9.2182   -8.6161   19.5157 H   0  0  0  0  0  0  0  0  0  0  0  0
    6.9689   -6.9795   19.0424 H   0  0  0  0  0  0  0  0  0  0  0  0
    6.7927   -7.5179   20.6460 H   0  0  0  0  0  0  0  0  0  0  0  0
  1  2  2  0
  2  3  1  0
  3  4  2  0
  4  5  1  0
  5  6  1  0
  6  7  1  0
  7  8  1  0
  8  9  1  0
  9 10  1  0
 10 11  1  0
  5 12  2  0
 12 13  1  0
 13 14  2  0
  2 15  1  0
 15 16  1  0
 16 17  1  0
 17 18  1  0
 18 19  1  0
 19 20  1  0
 20 21  1  0
 21 22  1  0
 14  3  1  0
 19 15  1  0
 11  6  1  0
 22 16  1  0
  4 23  1  0
  7 24  1  0
  7 25  1  0
  8 26  1  0
  8 27  1  0
  9 28  1  0
  9 29  1  0
 10 30  1  0
 10 31  1  0
 11 32  1  0
 11 33  1  0
 12 34  1  0
 13 35  1  0
 16 36  1  0
 17 37  1  0
 17 38  1  0
 18 39  1  0
 18 40  1  0
 19 41  1  0
 20 42  1  0
 20 43  1  0
 21 44  1  0
 22 45  1  0
 22 46  1  0
M  END
>  <Energy>  (378) 
1319.6455113003785

>  <compound_id>  (378) 
33110

>  <target_id>  (378) 
1

>  <reference_id>  (378) 
46

>  <inspiration_ids>  (378) 
[60, 46]

>  <energy_score>  (378) 
1150.8243407436282

>  <distance_score>  (378) 
16.29342585291122

>  <path>  (378) 
/opt/xchem-fragalysis-2/maxwin/BulkDock/SCRATCH/511016/C33110-P46/C33110-P46.minimised.mol

>  <scratch_subdir>  (378) 
/opt/xchem-fragalysis-2/maxwin/BulkDock/SCRATCH/511016/C33110-P46

>  <fragmenstein_runtime>  (378) 
33.07806372642517

>  <fragmenstein_outcome>  (378) 
too moved

>  <fragmenstein_mode>  (378) 
expansion

>  <fragmenstein_error>  (378) 


$$$$
C33111-P60
     RDKit          3D

 48 49  0  0  0  0  0  0  0  0999 V2000
    3.4962   -7.5145   27.7281 O   0  0  0  0  0  0  0  0  0  0  0  0
    4.0157   -8.4906   28.1148 C   0  0  0  0  0  0  0  0  0  0  0  0
    3.5260   -9.5216   29.0884 N   0  0  0  0  0  0  0  0  0  0  0  0
    2.3081   -9.5614   29.9109 C   0  0  0  0  0  0  0  0  0  0  0  0
    1.0223  -10.2727   29.3936 C   0  0  0  0  0  0  0  0  0  0  0  0
    0.9777  -11.7817   29.6711 C   0  0  0  0  0  0  0  0  0  0  0  0
    0.1174  -13.1498   30.9209 C   0  0  0  0  0  0  0  0  0  0  0  0
    0.1055  -15.0335   30.4823 C   0  0  0  0  0  0  0  0  0  0  0  0
    1.5006  -15.7703   29.4748 N   0  0  0  0  0  0  0  0  0  0  0  0
    2.3919  -14.5697   28.2383 C   0  0  0  0  0  0  0  0  0  0  0  0
    3.6594  -15.4554   27.5514 Cl  0  0  0  0  0  0  0  0  0  0  0  0
    2.3854  -12.5171   28.6155 C   0  0  0  0  0  0  0  0  0  0  0  0
    5.4156   -9.0136   27.8476 N   0  0  0  0  0  0  0  0  0  0  0  0
    6.5444   -8.4069   27.1171 C   0  0  0  0  0  0  0  0  0  0  0  0
    7.6607   -9.2927   26.4804 C   0  0  0  0  0  0  0  0  0  0  0  0
    7.1293  -10.0119   25.3641 O   0  0  0  0  0  0  0  0  0  0  0  0
    8.9227   -8.4489   26.0582 C   0  0  0  0  0  0  0  0  0  0  0  0
    9.9815   -9.0867   25.2321 N   0  0  0  0  0  0  0  0  0  0  0  0
   11.1940   -8.2393   25.2354 C   0  0  0  0  0  0  0  0  0  0  0  0
   12.2531   -8.8005   24.2895 C   0  0  0  0  0  0  0  0  0  0  0  0
   12.6293  -10.2232   24.6837 C   0  0  0  0  0  0  0  0  0  0  0  0
   11.3829  -11.0890   24.8162 C   0  0  0  0  0  0  0  0  0  0  0  0
   10.3223  -10.4388   25.7091 C   0  0  0  0  0  0  0  0  0  0  0  0
    4.2588  -10.1924   29.2611 H   0  0  0  0  0  0  0  0  0  0  0  0
    2.0484   -8.5109   30.0841 H   0  0  0  0  0  0  0  0  0  0  0  0
    2.6371   -9.9871   30.8567 H   0  0  0  0  0  0  0  0  0  0  0  0
    1.0100  -10.1411   28.3085 H   0  0  0  0  0  0  0  0  0  0  0  0
    0.0919   -9.7789   29.6738 H   0  0  0  0  0  0  0  0  0  0  0  0
   -0.5984  -12.9493   31.6965 H   0  0  0  0  0  0  0  0  0  0  0  0
   -0.4908  -15.7444   30.9990 H   0  0  0  0  0  0  0  0  0  0  0  0
    2.0582  -11.8417   27.7876 H   0  0  0  0  0  0  0  0  0  0  0  0
    5.5728   -9.8390   28.3984 H   0  0  0  0  0  0  0  0  0  0  0  0
    6.0719   -7.8187   26.3267 H   0  0  0  0  0  0  0  0  0  0  0  0
    6.9984   -7.7103   27.8301 H   0  0  0  0  0  0  0  0  0  0  0  0
    7.9663  -10.0400   27.2213 H   0  0  0  0  0  0  0  0  0  0  0  0
    6.8566   -9.3775   24.6656 H   0  0  0  0  0  0  0  0  0  0  0  0
    9.3546   -8.0319   26.9774 H   0  0  0  0  0  0  0  0  0  0  0  0
    8.5725   -7.6172   25.4511 H   0  0  0  0  0  0  0  0  0  0  0  0
   11.6102   -8.1642   26.2493 H   0  0  0  0  0  0  0  0  0  0  0  0
   10.9510   -7.2216   24.9239 H   0  0  0  0  0  0  0  0  0  0  0  0
   13.1447   -8.1639   24.3108 H   0  0  0  0  0  0  0  0  0  0  0  0
   11.8748   -8.7881   23.2597 H   0  0  0  0  0  0  0  0  0  0  0  0
   13.3095  -10.6531   23.9403 H   0  0  0  0  0  0  0  0  0  0  0  0
   13.1655  -10.2077   25.6405 H   0  0  0  0  0  0  0  0  0  0  0  0
   11.6563  -12.0699   25.2214 H   0  0  0  0  0  0  0  0  0  0  0  0
   10.9583  -11.2638   23.8214 H   0  0  0  0  0  0  0  0  0  0  0  0
   10.6782  -10.4066   26.7470 H   0  0  0  0  0  0  0  0  0  0  0  0
    9.4447  -11.0925   25.6838 H   0  0  0  0  0  0  0  0  0  0  0  0
  1  2  2  0
  2  3  1  0
  3  4  1  0
  4  5  1  0
  5  6  1  0
  6  7  2  0
  7  8  1  0
  8  9  2  0
  9 10  1  0
 10 11  1  0
 10 12  2  0
  2 13  1  0
 13 14  1  0
 14 15  1  0
 15 16  1  0
 15 17  1  0
 17 18  1  0
 18 19  1  0
 19 20  1  0
 20 21  1  0
 21 22  1  0
 22 23  1  0
 12  6  1  0
 23 18  1  0
  3 24  1  0
  4 25  1  0
  4 26  1  0
  5 27  1  0
  5 28  1  0
  7 29  1  0
  8 30  1  0
 12 31  1  0
 13 32  1  0
 14 33  1  0
 14 34  1  0
 15 35  1  0
 16 36  1  0
 17 37  1  0
 17 38  1  0
 19 39  1  0
 19 40  1  0
 20 41  1  0
 20 42  1  0
 21 43  1  0
 21 44  1  0
 22 45  1  0
 22 46  1  0
 23 47  1  0
 23 48  1  0
M  END
>  <Energy>  (379) 
673.87072786455553

>  <compound_id>  (379) 
33111

>  <target_id>  (379) 
1

>  <reference_id>  (379) 
60

>  <inspiration_ids>  (379) 
[60, 46]

>  <energy_score>  (379) 
647.5599636018256

>  <distance_score>  (379) 
13.469550942922972

>  <path>  (379) 
/opt/xchem-fragalysis-2/maxwin/BulkDock/SCRATCH/511016/C33111-P60/C33111-P60.minimised.mol

>  <scratch_subdir>  (379) 
/opt/xchem-fragalysis-2/maxwin/BulkDock/SCRATCH/511016/C33111-P60

>  <fragmenstein_runtime>  (379) 
46.748475551605225

>  <fragmenstein_outcome>  (379) 
too moved

>  <fragmenstein_mode>  (379) 
expansion

>  <fragmenstein_error>  (379) 


$$$$
C33111-P46
     RDKit          3D

 48 49  0  0  0  0  0  0  0  0999 V2000
    3.9662   -9.1097   34.6875 O   0  0  0  0  0  0  0  0  0  0  0  0
    4.4225  -10.1086   34.2734 C   0  0  0  0  0  0  0  0  0  0  0  0
    4.1105  -11.5535   34.6558 N   0  0  0  0  0  0  0  0  0  0  0  0
    3.0747  -12.1181   35.5851 C   0  0  0  0  0  0  0  0  0  0  0  0
    2.1990  -13.2689   34.9742 C   0  0  0  0  0  0  0  0  0  0  0  0
    0.8599  -13.7555   35.5928 C   0  0  0  0  0  0  0  0  0  0  0  0
   -0.3503  -13.0816   35.3603 C   0  0  0  0  0  0  0  0  0  0  0  0
   -1.5734  -13.6823   35.6995 C   0  0  0  0  0  0  0  0  0  0  0  0
   -1.6939  -14.8949   36.2761 N   0  0  0  0  0  0  0  0  0  0  0  0
   -0.5292  -15.5231   36.5244 C   0  0  0  0  0  0  0  0  0  0  0  0
   -0.6924  -17.0682   37.2540 Cl  0  0  0  0  0  0  0  0  0  0  0  0
    0.7406  -15.0113   36.2188 C   0  0  0  0  0  0  0  0  0  0  0  0
    5.4104  -10.3321   33.1387 N   0  0  0  0  0  0  0  0  0  0  0  0
    6.0023   -9.3754   32.1680 C   0  0  0  0  0  0  0  0  0  0  0  0
    7.5000   -9.5272   31.7273 C   0  0  0  0  0  0  0  0  0  0  0  0
    7.7787  -10.8984   31.3968 O   0  0  0  0  0  0  0  0  0  0  0  0
    7.9427   -8.5556   30.5528 C   0  0  0  0  0  0  0  0  0  0  0  0
    8.2517   -9.2126   29.2548 N   0  0  0  0  0  0  0  0  0  0  0  0
    8.9547   -8.2672   28.3553 C   0  0  0  0  0  0  0  0  0  0  0  0
    9.3453   -8.9402   27.0376 C   0  0  0  0  0  0  0  0  0  0  0  0
    8.1400   -9.5662   26.3460 C   0  0  0  0  0  0  0  0  0  0  0  0
    7.3750  -10.4566   27.3166 C   0  0  0  0  0  0  0  0  0  0  0  0
    7.0212   -9.7014   28.5987 C   0  0  0  0  0  0  0  0  0  0  0  0
    4.7339  -12.1645   34.1736 H   0  0  0  0  0  0  0  0  0  0  0  0
    3.6100  -12.4918   36.4639 H   0  0  0  0  0  0  0  0  0  0  0  0
    2.4413  -11.2872   35.9090 H   0  0  0  0  0  0  0  0  0  0  0  0
    2.8566  -14.1449   34.8882 H   0  0  0  0  0  0  0  0  0  0  0  0
    1.9678  -13.0068   33.9336 H   0  0  0  0  0  0  0  0  0  0  0  0
   -0.3614  -12.1150   34.8680 H   0  0  0  0  0  0  0  0  0  0  0  0
   -2.5128  -13.1765   35.4934 H   0  0  0  0  0  0  0  0  0  0  0  0
    1.6186  -15.6210   36.4080 H   0  0  0  0  0  0  0  0  0  0  0  0
    5.6550  -11.2991   33.0979 H   0  0  0  0  0  0  0  0  0  0  0  0
    5.3723   -9.4765   31.2775 H   0  0  0  0  0  0  0  0  0  0  0  0
    5.8352   -8.3679   32.5642 H   0  0  0  0  0  0  0  0  0  0  0  0
    8.1194   -9.3035   32.6041 H   0  0  0  0  0  0  0  0  0  0  0  0
    8.2945  -10.8509   30.5643 H   0  0  0  0  0  0  0  0  0  0  0  0
    7.2134   -7.7439   30.4352 H   0  0  0  0  0  0  0  0  0  0  0  0
    8.8658   -8.0786   30.9095 H   0  0  0  0  0  0  0  0  0  0  0  0
    8.3287   -7.3882   28.1529 H   0  0  0  0  0  0  0  0  0  0  0  0
    9.8724   -7.9115   28.8388 H   0  0  0  0  0  0  0  0  0  0  0  0
   10.0951   -9.7172   27.2338 H   0  0  0  0  0  0  0  0  0  0  0  0
    9.8130   -8.2064   26.3712 H   0  0  0  0  0  0  0  0  0  0  0  0
    7.4756   -8.7767   25.9762 H   0  0  0  0  0  0  0  0  0  0  0  0
    8.4643  -10.1468   25.4754 H   0  0  0  0  0  0  0  0  0  0  0  0
    7.9808  -11.3382   27.5626 H   0  0  0  0  0  0  0  0  0  0  0  0
    6.4631  -10.8250   26.8396 H   0  0  0  0  0  0  0  0  0  0  0  0
    6.3414   -8.8698   28.3709 H   0  0  0  0  0  0  0  0  0  0  0  0
    6.4760  -10.3924   29.2495 H   0  0  0  0  0  0  0  0  0  0  0  0
  1  2  2  0
  2  3  1  0
  3  4  1  0
  4  5  1  0
  5  6  1  0
  6  7  2  0
  7  8  1  0
  8  9  2  0
  9 10  1  0
 10 11  1  0
 10 12  2  0
  2 13  1  0
 13 14  1  0
 14 15  1  0
 15 16  1  0
 15 17  1  0
 17 18  1  0
 18 19  1  0
 19 20  1  0
 20 21  1  0
 21 22  1  0
 22 23  1  0
 12  6  1  0
 23 18  1  0
  3 24  1  0
  4 25  1  0
  4 26  1  0
  5 27  1  0
  5 28  1  0
  7 29  1  0
  8 30  1  0
 12 31  1  0
 13 32  1  0
 14 33  1  0
 14 34  1  0
 15 35  1  0
 16 36  1  0
 17 37  1  0
 17 38  1  0
 19 39  1  0
 19 40  1  0
 20 41  1  0
 20 42  1  0
 21 43  1  0
 21 44  1  0
 22 45  1  0
 22 46  1  0
 23 47  1  0
 23 48  1  0
M  END
>  <Energy>  (380) 
6.0192383538759024

>  <compound_id>  (380) 
33111

>  <target_id>  (380) 
1

>  <reference_id>  (380) 
46

>  <inspiration_ids>  (380) 
[60, 46]

>  <energy_score>  (380) 
-20.291525908847916

>  <distance_score>  (380) 
14.955967018228167

>  <path>  (380) 
/opt/xchem-fragalysis-2/maxwin/BulkDock/SCRATCH/511016/C33111-P46/C33111-P46.minimised.mol

>  <scratch_subdir>  (380) 
/opt/xchem-fragalysis-2/maxwin/BulkDock/SCRATCH/511016/C33111-P46

>  <fragmenstein_runtime>  (380) 
78.41663980484009

>  <fragmenstein_outcome>  (380) 
too moved

>  <fragmenstein_mode>  (380) 
expansion

>  <fragmenstein_error>  (380) 


$$$$
C17846-P187
     RDKit          3D

 39 40  0  0  0  0  0  0  0  0999 V2000
    9.7351   -5.5739   20.1257 C   0  0  0  0  0  0  0  0  0  0  0  0
    8.1343   -4.5285   20.5268 C   0  0  0  0  0  0  0  0  0  0  0  0
    8.6536   -3.3273   20.4610 N   0  0  0  0  0  0  0  0  0  0  0  0
    7.3650   -1.3435   20.4104 S   0  0  0  0  0  0  0  0  0  0  0  0
    6.0468   -3.1044   20.9833 C   0  0  0  0  0  0  0  0  0  0  0  0
    7.3240   -4.1218   21.6673 C   0  0  0  0  0  0  0  0  0  0  0  0
    6.7365   -4.8282   23.3484 C   0  0  0  0  0  0  0  0  0  0  0  0
    6.3636   -3.9399   24.0562 O   0  0  0  0  0  0  0  0  0  0  0  0
    6.8838   -6.2356   23.6214 N   0  0  0  0  0  0  0  0  0  0  0  0
    6.7187   -7.0136   24.8898 C   0  0  0  0  0  0  0  0  0  0  0  0
    7.7702   -6.5138   25.9292 C   0  0  0  0  0  0  0  0  0  0  0  0
    7.9804   -7.4811   26.9607 O   0  0  0  0  0  0  0  0  0  0  0  0
    5.3541   -7.1757   25.6698 C   0  0  0  0  0  0  0  0  0  0  0  0
    4.3033   -8.1169   25.0845 C   0  0  0  0  0  0  0  0  0  0  0  0
    4.7105   -5.9963   26.2234 N   0  0  0  0  0  0  0  0  0  0  0  0
    3.7805   -5.8545   27.3042 C   0  0  0  0  0  0  0  0  0  0  0  0
    3.2345   -6.6802   27.9779 O   0  0  0  0  0  0  0  0  0  0  0  0
    3.4533   -4.4726   27.6223 C   0  0  0  0  0  0  0  0  0  0  0  0
    3.9914   -3.2457   27.2920 C   0  0  0  0  0  0  0  0  0  0  0  0
    3.3044   -2.2180   27.8943 N   0  0  0  0  0  0  0  0  0  0  0  0
    2.3531   -2.7891   28.5934 C   0  0  0  0  0  0  0  0  0  0  0  0
    2.4115   -4.1436   28.4771 N   0  0  0  0  0  0  0  0  0  0  0  0
    9.9080   -5.6337   19.0960 H   0  0  0  0  0  0  0  0  0  0  0  0
    9.8145   -6.5980   20.3069 H   0  0  0  0  0  0  0  0  0  0  0  0
   10.7144   -5.2855   20.5951 H   0  0  0  0  0  0  0  0  0  0  0  0
    5.1962   -2.7361   21.4760 H   0  0  0  0  0  0  0  0  0  0  0  0
    7.1356   -6.6998   22.7860 H   0  0  0  0  0  0  0  0  0  0  0  0
    7.0460   -8.0268   24.6385 H   0  0  0  0  0  0  0  0  0  0  0  0
    8.7450   -6.3664   25.4646 H   0  0  0  0  0  0  0  0  0  0  0  0
    7.4583   -5.5694   26.3875 H   0  0  0  0  0  0  0  0  0  0  0  0
    8.5820   -7.0648   27.6043 H   0  0  0  0  0  0  0  0  0  0  0  0
    5.6254   -7.7178   26.5876 H   0  0  0  0  0  0  0  0  0  0  0  0
    4.6792   -9.1451   25.0666 H   0  0  0  0  0  0  0  0  0  0  0  0
    4.0435   -7.8350   24.0704 H   0  0  0  0  0  0  0  0  0  0  0  0
    3.3818   -8.1287   25.6743 H   0  0  0  0  0  0  0  0  0  0  0  0
    5.0305   -5.0757   25.9394 H   0  0  0  0  0  0  0  0  0  0  0  0
    4.8450   -3.0303   26.6596 H   0  0  0  0  0  0  0  0  0  0  0  0
    1.6063   -2.2804   29.1898 H   0  0  0  0  0  0  0  0  0  0  0  0
    1.7946   -4.8133   28.9180 H   0  0  0  0  0  0  0  0  0  0  0  0
  1  2  1  0
  2  3  2  0
  3  4  1  0
  4  5  1  0
  5  6  2  0
  6  7  1  0
  7  8  2  0
  7  9  1  0
  9 10  1  0
 10 11  1  0
 11 12  1  0
 10 13  1  0
 13 14  1  0
 13 15  1  0
 15 16  1  0
 16 17  2  0
 16 18  1  0
 18 19  2  0
 19 20  1  0
 20 21  2  0
 21 22  1  0
  6  2  1  0
 22 18  1  0
  1 23  1  0
  1 24  1  0
  1 25  1  0
  5 26  1  0
  9 27  1  0
 10 28  1  0
 11 29  1  0
 11 30  1  0
 12 31  1  0
 13 32  1  0
 14 33  1  0
 14 34  1  0
 14 35  1  0
 15 36  1  0
 19 37  1  0
 21 38  1  0
 22 39  1  0
M  END
>  <Energy>  (381) 
322.50805524194101

>  <compound_id>  (381) 
17846

>  <target_id>  (381) 
1

>  <reference_id>  (381) 
187

>  <inspiration_ids>  (381) 
[187, 63]

>  <energy_score>  (381) 
311.3323644750052

>  <distance_score>  (381) 
7.0862661138934415

>  <path>  (381) 
/opt/xchem-fragalysis-2/maxwin/BulkDock/SCRATCH/511016/C17846-P187/C17846-P187.minimised.mol

>  <scratch_subdir>  (381) 
/opt/xchem-fragalysis-2/maxwin/BulkDock/SCRATCH/511016/C17846-P187

>  <fragmenstein_runtime>  (381) 
24.775310039520264

>  <fragmenstein_outcome>  (381) 
too moved

>  <fragmenstein_mode>  (381) 
expansion

>  <fragmenstein_error>  (381) 


$$$$
C17846-P63
     RDKit          3D

 39 40  0  0  0  0  0  0  0  0999 V2000
   11.9320   -3.9866   22.5455 C   0  0  0  0  0  0  0  0  0  0  0  0
   11.1922   -4.4359   21.0283 C   0  0  0  0  0  0  0  0  0  0  0  0
   12.3511   -4.3868   20.2989 N   0  0  0  0  0  0  0  0  0  0  0  0
   12.3148   -5.9772   20.4909 S   0  0  0  0  0  0  0  0  0  0  0  0
   10.2232   -5.7429   19.8207 C   0  0  0  0  0  0  0  0  0  0  0  0
    9.2288   -4.9930   20.4745 C   0  0  0  0  0  0  0  0  0  0  0  0
    7.6894   -5.3243   21.9491 C   0  0  0  0  0  0  0  0  0  0  0  0
    7.0909   -6.3036   21.6709 O   0  0  0  0  0  0  0  0  0  0  0  0
    6.8428   -4.4750   23.4685 N   0  0  0  0  0  0  0  0  0  0  0  0
    5.0793   -4.8713   24.5309 C   0  0  0  0  0  0  0  0  0  0  0  0
    3.6735   -6.4250   24.4554 C   0  0  0  0  0  0  0  0  0  0  0  0
    1.9536   -6.0171   24.0004 O   0  0  0  0  0  0  0  0  0  0  0  0
    3.9131   -3.3291   25.2039 C   0  0  0  0  0  0  0  0  0  0  0  0
    2.7916   -3.1690   26.5121 C   0  0  0  0  0  0  0  0  0  0  0  0
    4.4872   -1.9718   25.7274 N   0  0  0  0  0  0  0  0  0  0  0  0
    5.0690   -1.6148   27.0141 C   0  0  0  0  0  0  0  0  0  0  0  0
    5.3332   -2.2922   27.9702 O   0  0  0  0  0  0  0  0  0  0  0  0
    5.2658   -0.1954   27.2030 C   0  0  0  0  0  0  0  0  0  0  0  0
    4.6460    0.9059   26.6506 C   0  0  0  0  0  0  0  0  0  0  0  0
    4.8824    2.0368   27.3885 N   0  0  0  0  0  0  0  0  0  0  0  0
    5.6051    1.6369   28.4080 C   0  0  0  0  0  0  0  0  0  0  0  0
    5.8824    0.3070   28.3284 N   0  0  0  0  0  0  0  0  0  0  0  0
   12.9683   -3.6736   22.3429 H   0  0  0  0  0  0  0  0  0  0  0  0
   12.0113   -4.8565   23.2083 H   0  0  0  0  0  0  0  0  0  0  0  0
   11.4981   -3.1556   23.0828 H   0  0  0  0  0  0  0  0  0  0  0  0
   10.4264   -5.5191   18.8139 H   0  0  0  0  0  0  0  0  0  0  0  0
    7.4038   -3.7183   23.7306 H   0  0  0  0  0  0  0  0  0  0  0  0
    5.2413   -3.7635   24.6793 H   0  0  0  0  0  0  0  0  0  0  0  0
    3.6947   -7.5093   24.6787 H   0  0  0  0  0  0  0  0  0  0  0  0
    4.3332   -7.0224   23.7105 H   0  0  0  0  0  0  0  0  0  0  0  0
    1.4627   -6.8308   24.2433 H   0  0  0  0  0  0  0  0  0  0  0  0
    3.3991   -2.9734   24.3008 H   0  0  0  0  0  0  0  0  0  0  0  0
    2.3356   -2.1675   26.4893 H   0  0  0  0  0  0  0  0  0  0  0  0
    1.9786   -3.8829   26.6292 H   0  0  0  0  0  0  0  0  0  0  0  0
    3.2813   -3.1780   27.4901 H   0  0  0  0  0  0  0  0  0  0  0  0
    4.4828   -1.1691   25.1376 H   0  0  0  0  0  0  0  0  0  0  0  0
    3.9762    0.9448   25.8048 H   0  0  0  0  0  0  0  0  0  0  0  0
    5.9512    2.2568   29.2244 H   0  0  0  0  0  0  0  0  0  0  0  0
    6.3447   -0.2634   29.0243 H   0  0  0  0  0  0  0  0  0  0  0  0
  1  2  1  0
  2  3  2  0
  3  4  1  0
  4  5  1  0
  5  6  2  0
  6  7  1  0
  7  8  2  0
  7  9  1  0
  9 10  1  0
 10 11  1  0
 11 12  1  0
 10 13  1  0
 13 14  1  0
 13 15  1  0
 15 16  1  0
 16 17  2  0
 16 18  1  0
 18 19  2  0
 19 20  1  0
 20 21  2  0
 21 22  1  0
  6  2  1  0
 22 18  1  0
  1 23  1  0
  1 24  1  0
  1 25  1  0
  5 26  1  0
  9 27  1  0
 10 28  1  0
 11 29  1  0
 11 30  1  0
 12 31  1  0
 13 32  1  0
 14 33  1  0
 14 34  1  0
 14 35  1  0
 15 36  1  0
 19 37  1  0
 21 38  1  0
 22 39  1  0
M  END
>  <Energy>  (382) 
1094.837249722925

>  <compound_id>  (382) 
17846

>  <target_id>  (382) 
1

>  <reference_id>  (382) 
63

>  <inspiration_ids>  (382) 
[187, 63]

>  <energy_score>  (382) 
1083.6615589560113

>  <distance_score>  (382) 
8.161058732400313

>  <path>  (382) 
/opt/xchem-fragalysis-2/maxwin/BulkDock/SCRATCH/511016/C17846-P63/C17846-P63.minimised.mol

>  <scratch_subdir>  (382) 
/opt/xchem-fragalysis-2/maxwin/BulkDock/SCRATCH/511016/C17846-P63

>  <fragmenstein_runtime>  (382) 
22.500588178634644

>  <fragmenstein_outcome>  (382) 
too moved

>  <fragmenstein_mode>  (382) 
expansion

>  <fragmenstein_error>  (382) 


$$$$
C17869-P187
     RDKit          3D

 40 42  0  0  0  0  0  0  0  0999 V2000
    2.1797   -4.7865   26.9531 O   0  0  0  0  0  0  0  0  0  0  0  0
    2.9832   -4.7119   27.8285 C   0  0  0  0  0  0  0  0  0  0  0  0
    4.3968   -4.6398   27.7807 N   0  0  0  0  0  0  0  0  0  0  0  0
    5.3033   -4.5385   26.6610 C   0  0  0  0  0  0  0  0  0  0  0  0
    5.8556   -5.9161   26.2042 C   0  0  0  0  0  0  0  0  0  0  0  0
    7.3292   -5.7750   25.6721 N   0  0  0  0  0  0  0  0  0  0  0  0
    7.5315   -6.6193   24.5184 C   0  0  0  0  0  0  0  0  0  0  0  0
    7.9181   -7.7617   24.4429 O   0  0  0  0  0  0  0  0  0  0  0  0
    7.1328   -5.7722   23.0206 C   0  0  0  0  0  0  0  0  0  0  0  0
    7.4957   -4.8289   21.6782 O   0  0  0  0  0  0  0  0  0  0  0  0
    8.4211   -4.7274   20.4740 C   0  0  0  0  0  0  0  0  0  0  0  0
    9.9047   -5.7298   20.0846 C   0  0  0  0  0  0  0  0  0  0  0  0
   11.2473   -5.4924   20.4606 C   0  0  0  0  0  0  0  0  0  0  0  0
   11.2681   -3.9712   21.3106 S   0  0  0  0  0  0  0  0  0  0  0  0
    9.0521   -3.5935   20.6182 N   0  0  0  0  0  0  0  0  0  0  0  0
    7.6419   -6.0107   27.1408 C   0  0  0  0  0  0  0  0  0  0  0  0
    9.0492   -6.5237   27.4231 C   0  0  0  0  0  0  0  0  0  0  0  0
    7.8753   -7.3847   27.7414 C   0  0  0  0  0  0  0  0  0  0  0  0
    2.4645   -4.7514   29.1961 C   0  0  0  0  0  0  0  0  0  0  0  0
    3.0230   -4.6318   30.4544 C   0  0  0  0  0  0  0  0  0  0  0  0
    2.1033   -4.8523   31.4486 N   0  0  0  0  0  0  0  0  0  0  0  0
    0.9603   -5.0144   30.8280 C   0  0  0  0  0  0  0  0  0  0  0  0
    1.1198   -4.9312   29.4773 N   0  0  0  0  0  0  0  0  0  0  0  0
    4.7501   -4.5021   28.7165 H   0  0  0  0  0  0  0  0  0  0  0  0
    4.7477   -4.0849   25.8342 H   0  0  0  0  0  0  0  0  0  0  0  0
    6.0851   -3.8258   26.9399 H   0  0  0  0  0  0  0  0  0  0  0  0
    5.2650   -6.2047   25.3224 H   0  0  0  0  0  0  0  0  0  0  0  0
    5.6510   -6.7531   26.8924 H   0  0  0  0  0  0  0  0  0  0  0  0
    6.5298   -6.5786   22.6071 H   0  0  0  0  0  0  0  0  0  0  0  0
    6.5247   -5.0218   23.5352 H   0  0  0  0  0  0  0  0  0  0  0  0
    9.5498   -6.4895   19.4697 H   0  0  0  0  0  0  0  0  0  0  0  0
   12.1767   -6.0206   20.3301 H   0  0  0  0  0  0  0  0  0  0  0  0
    7.4494   -5.1556   27.7907 H   0  0  0  0  0  0  0  0  0  0  0  0
    9.5962   -6.0755   28.2443 H   0  0  0  0  0  0  0  0  0  0  0  0
    9.6736   -6.8012   26.5813 H   0  0  0  0  0  0  0  0  0  0  0  0
    7.7123   -8.2583   27.1195 H   0  0  0  0  0  0  0  0  0  0  0  0
    7.6205   -7.5328   28.7839 H   0  0  0  0  0  0  0  0  0  0  0  0
    4.0520   -4.4243   30.7183 H   0  0  0  0  0  0  0  0  0  0  0  0
   -0.0010   -5.1827   31.2959 H   0  0  0  0  0  0  0  0  0  0  0  0
    0.3929   -5.0094   28.7741 H   0  0  0  0  0  0  0  0  0  0  0  0
  1  2  2  0
  2  3  1  0
  3  4  1  0
  4  5  1  0
  5  6  1  0
  6  7  1  0
  7  8  2  0
  7  9  1  0
  9 10  1  0
 10 11  1  0
 11 12  1  0
 12 13  2  0
 13 14  1  0
 14 15  1  0
  6 16  1  0
 16 17  1  0
 17 18  1  0
  2 19  1  0
 19 20  2  0
 20 21  1  0
 21 22  2  0
 22 23  1  0
 15 11  2  0
 18 16  1  0
 23 19  1  0
  3 24  1  0
  4 25  1  0
  4 26  1  0
  5 27  1  0
  5 28  1  0
  9 29  1  0
  9 30  1  0
 12 31  1  0
 13 32  1  0
 16 33  1  0
 17 34  1  0
 17 35  1  0
 18 36  1  0
 18 37  1  0
 20 38  1  0
 22 39  1  0
 23 40  1  0
M  END
>  <Energy>  (383) 
333.62028848681655

>  <compound_id>  (383) 
17869

>  <target_id>  (383) 
1

>  <reference_id>  (383) 
187

>  <inspiration_ids>  (383) 
[187, 63]

>  <energy_score>  (383) 
293.823546143661

>  <distance_score>  (383) 
7.482652913359832

>  <path>  (383) 
/opt/xchem-fragalysis-2/maxwin/BulkDock/SCRATCH/511016/C17869-P187/C17869-P187.minimised.mol

>  <scratch_subdir>  (383) 
/opt/xchem-fragalysis-2/maxwin/BulkDock/SCRATCH/511016/C17869-P187

>  <fragmenstein_runtime>  (383) 
11.22696304321289

>  <fragmenstein_outcome>  (383) 
too moved

>  <fragmenstein_mode>  (383) 
expansion

>  <fragmenstein_error>  (383) 


$$$$
C17869-P63
     RDKit          3D

 40 42  0  0  0  0  0  0  0  0999 V2000
    2.2013   -3.8401   30.5081 O   0  0  0  0  0  0  0  0  0  0  0  0
    1.3207   -4.1225   29.7528 C   0  0  0  0  0  0  0  0  0  0  0  0
    0.8522   -3.4586   28.5772 N   0  0  0  0  0  0  0  0  0  0  0  0
    1.2317   -2.1855   27.9847 C   0  0  0  0  0  0  0  0  0  0  0  0
    2.5766   -2.1206   27.1925 C   0  0  0  0  0  0  0  0  0  0  0  0
    3.0267   -0.8718   26.2308 N   0  0  0  0  0  0  0  0  0  0  0  0
    4.3273   -1.1178   25.6756 C   0  0  0  0  0  0  0  0  0  0  0  0
    5.4203   -0.8241   26.0922 O   0  0  0  0  0  0  0  0  0  0  0  0
    4.3005   -1.8507   24.1016 C   0  0  0  0  0  0  0  0  0  0  0  0
    5.3746   -1.7994   22.9318 O   0  0  0  0  0  0  0  0  0  0  0  0
    5.6999   -1.2112   21.6066 C   0  0  0  0  0  0  0  0  0  0  0  0
    6.8840   -0.1272   20.4391 C   0  0  0  0  0  0  0  0  0  0  0  0
    6.8182   -0.0541   18.7896 C   0  0  0  0  0  0  0  0  0  0  0  0
    7.4313   -0.8316   20.2385 S   0  0  0  0  0  0  0  0  0  0  0  0
    5.5337    0.0689   21.2949 N   0  0  0  0  0  0  0  0  0  0  0  0
    2.6111   -0.0825   27.4348 C   0  0  0  0  0  0  0  0  0  0  0  0
    1.3071    0.6958   27.5199 C   0  0  0  0  0  0  0  0  0  0  0  0
    2.5498    1.4249   27.1760 C   0  0  0  0  0  0  0  0  0  0  0  0
    0.4955   -5.2793   30.0990 C   0  0  0  0  0  0  0  0  0  0  0  0
   -0.3767   -6.0997   29.4042 C   0  0  0  0  0  0  0  0  0  0  0  0
   -1.0224   -6.9911   30.2365 N   0  0  0  0  0  0  0  0  0  0  0  0
   -0.4728   -6.8007   31.4124 C   0  0  0  0  0  0  0  0  0  0  0  0
    0.4782   -5.8232   31.3691 N   0  0  0  0  0  0  0  0  0  0  0  0
    0.0319   -3.9389   28.2327 H   0  0  0  0  0  0  0  0  0  0  0  0
    0.3877   -1.8575   27.3830 H   0  0  0  0  0  0  0  0  0  0  0  0
    1.2879   -1.5235   28.8556 H   0  0  0  0  0  0  0  0  0  0  0  0
    3.4253   -2.3346   27.8646 H   0  0  0  0  0  0  0  0  0  0  0  0
    2.6032   -2.9654   26.5052 H   0  0  0  0  0  0  0  0  0  0  0  0
    4.5526   -2.7954   24.5824 H   0  0  0  0  0  0  0  0  0  0  0  0
    3.3193   -2.1341   23.7388 H   0  0  0  0  0  0  0  0  0  0  0  0
    7.3506    1.0233   20.9603 H   0  0  0  0  0  0  0  0  0  0  0  0
    7.3623    0.5528   18.0816 H   0  0  0  0  0  0  0  0  0  0  0  0
    3.2280   -0.2507   28.3260 H   0  0  0  0  0  0  0  0  0  0  0  0
    0.8795    0.8685   28.5007 H   0  0  0  0  0  0  0  0  0  0  0  0
    0.5735    0.5658   26.7345 H   0  0  0  0  0  0  0  0  0  0  0  0
    2.6382    1.7805   26.1569 H   0  0  0  0  0  0  0  0  0  0  0  0
    2.9916    2.0788   27.9179 H   0  0  0  0  0  0  0  0  0  0  0  0
   -0.6127   -6.0783   28.3478 H   0  0  0  0  0  0  0  0  0  0  0  0
   -0.6903   -7.3455   32.3207 H   0  0  0  0  0  0  0  0  0  0  0  0
    1.0789   -5.5428   32.1343 H   0  0  0  0  0  0  0  0  0  0  0  0
  1  2  2  0
  2  3  1  0
  3  4  1  0
  4  5  1  0
  5  6  1  0
  6  7  1  0
  7  8  2  0
  7  9  1  0
  9 10  1  0
 10 11  1  0
 11 12  1  0
 12 13  2  0
 13 14  1  0
 14 15  1  0
  6 16  1  0
 16 17  1  0
 17 18  1  0
  2 19  1  0
 19 20  2  0
 20 21  1  0
 21 22  2  0
 22 23  1  0
 15 11  2  0
 18 16  1  0
 23 19  1  0
  3 24  1  0
  4 25  1  0
  4 26  1  0
  5 27  1  0
  5 28  1  0
  9 29  1  0
  9 30  1  0
 12 31  1  0
 13 32  1  0
 16 33  1  0
 17 34  1  0
 17 35  1  0
 18 36  1  0
 18 37  1  0
 20 38  1  0
 22 39  1  0
 23 40  1  0
M  END
>  <Energy>  (384) 
661.11619102063958

>  <compound_id>  (384) 
17869

>  <target_id>  (384) 
1

>  <reference_id>  (384) 
63

>  <inspiration_ids>  (384) 
[187, 63]

>  <energy_score>  (384) 
621.3194486774902

>  <distance_score>  (384) 
6.3941879495933565

>  <path>  (384) 
/opt/xchem-fragalysis-2/maxwin/BulkDock/SCRATCH/511016/C17869-P63/C17869-P63.minimised.mol

>  <scratch_subdir>  (384) 
/opt/xchem-fragalysis-2/maxwin/BulkDock/SCRATCH/511016/C17869-P63

>  <fragmenstein_runtime>  (384) 
12.989685297012329

>  <fragmenstein_outcome>  (384) 
too moved

>  <fragmenstein_mode>  (384) 
expansion

>  <fragmenstein_error>  (384) 


$$$$
C17876-P187
     RDKit          3D

 36 38  0  0  0  0  0  0  0  0999 V2000
    8.4369   -3.8536   27.7905 O   0  0  0  0  0  0  0  0  0  0  0  0
    8.0140   -2.8425   27.3598 C   0  0  0  0  0  0  0  0  0  0  0  0
    6.6149   -2.1231   27.6089 N   0  0  0  0  0  0  0  0  0  0  0  0
    5.4173   -2.5027   28.5937 C   0  0  0  0  0  0  0  0  0  0  0  0
    5.0213   -4.0271   28.5267 C   0  0  0  0  0  0  0  0  0  0  0  0
    3.8130   -4.5038   29.2481 N   0  0  0  0  0  0  0  0  0  0  0  0
    3.4664   -4.4784   30.7624 C   0  0  0  0  0  0  0  0  0  0  0  0
    4.0444   -4.0094   31.6630 O   0  0  0  0  0  0  0  0  0  0  0  0
    2.1895   -5.1789   31.0695 C   0  0  0  0  0  0  0  0  0  0  0  0
    1.1936   -5.7997   30.3278 C   0  0  0  0  0  0  0  0  0  0  0  0
    0.2343   -6.3994   31.1111 N   0  0  0  0  0  0  0  0  0  0  0  0
    0.5781   -6.1102   32.3433 C   0  0  0  0  0  0  0  0  0  0  0  0
    1.7265   -5.3664   32.3716 N   0  0  0  0  0  0  0  0  0  0  0  0
    4.1833   -1.5363   28.4713 C   0  0  0  0  0  0  0  0  0  0  0  0
    3.3973   -1.1456   29.7344 C   0  0  0  0  0  0  0  0  0  0  0  0
    2.6715   -1.8248   28.6221 C   0  0  0  0  0  0  0  0  0  0  0  0
    9.0628   -2.1213   26.4137 C   0  0  0  0  0  0  0  0  0  0  0  0
   10.1880   -2.8233   25.7258 C   0  0  0  0  0  0  0  0  0  0  0  0
   11.0557   -2.1550   24.9579 N   0  0  0  0  0  0  0  0  0  0  0  0
   10.7410   -0.5378   25.1487 S   0  0  0  0  0  0  0  0  0  0  0  0
    9.2867   -0.7835   26.1030 C   0  0  0  0  0  0  0  0  0  0  0  0
    6.6084   -1.2240   27.1463 H   0  0  0  0  0  0  0  0  0  0  0  0
    5.8554   -2.3271   29.5843 H   0  0  0  0  0  0  0  0  0  0  0  0
    4.8630   -4.3007   27.4774 H   0  0  0  0  0  0  0  0  0  0  0  0
    5.8600   -4.6251   28.8991 H   0  0  0  0  0  0  0  0  0  0  0  0
    3.0524   -4.9238   28.7351 H   0  0  0  0  0  0  0  0  0  0  0  0
    1.1335   -5.8594   29.2547 H   0  0  0  0  0  0  0  0  0  0  0  0
    0.0440   -6.3955   33.2419 H   0  0  0  0  0  0  0  0  0  0  0  0
    2.1900   -5.0072   33.1963 H   0  0  0  0  0  0  0  0  0  0  0  0
    4.4264   -0.7157   27.8002 H   0  0  0  0  0  0  0  0  0  0  0  0
    3.5795   -1.6908   30.6514 H   0  0  0  0  0  0  0  0  0  0  0  0
    3.2031   -0.0903   29.8979 H   0  0  0  0  0  0  0  0  0  0  0  0
    2.2670   -2.8052   28.7980 H   0  0  0  0  0  0  0  0  0  0  0  0
    1.9925   -1.2155   28.0285 H   0  0  0  0  0  0  0  0  0  0  0  0
   10.3460   -3.8927   25.8154 H   0  0  0  0  0  0  0  0  0  0  0  0
    8.7589    0.0857   26.4642 H   0  0  0  0  0  0  0  0  0  0  0  0
  1  2  2  0
  2  3  1  0
  3  4  1  0
  4  5  1  0
  5  6  1  0
  6  7  1  0
  7  8  2  0
  7  9  1  0
  9 10  2  0
 10 11  1  0
 11 12  2  0
 12 13  1  0
  4 14  1  0
 14 15  1  0
 15 16  1  0
  2 17  1  0
 17 18  1  0
 18 19  2  0
 19 20  1  0
 20 21  1  0
 13  9  1  0
 16 14  1  0
 21 17  2  0
  3 22  1  0
  4 23  1  0
  5 24  1  0
  5 25  1  0
  6 26  1  0
 10 27  1  0
 12 28  1  0
 13 29  1  0
 14 30  1  0
 15 31  1  0
 15 32  1  0
 16 33  1  0
 16 34  1  0
 18 35  1  0
 21 36  1  0
M  END
>  <Energy>  (385) 
34.102488182040773

>  <compound_id>  (385) 
17876

>  <target_id>  (385) 
1

>  <reference_id>  (385) 
187

>  <inspiration_ids>  (385) 
[187, 63]

>  <energy_score>  (385) 
28.03365266193225

>  <distance_score>  (385) 
7.252163015398143

>  <path>  (385) 
/opt/xchem-fragalysis-2/maxwin/BulkDock/SCRATCH/511016/C17876-P187/C17876-P187.minimised.mol

>  <scratch_subdir>  (385) 
/opt/xchem-fragalysis-2/maxwin/BulkDock/SCRATCH/511016/C17876-P187

>  <fragmenstein_runtime>  (385) 
10.822487592697144

>  <fragmenstein_outcome>  (385) 
too moved

>  <fragmenstein_mode>  (385) 
expansion

>  <fragmenstein_error>  (385) 


$$$$
C17876-P63
     RDKit          3D

 36 38  0  0  0  0  0  0  0  0999 V2000
    8.0755   -2.5447   28.2617 O   0  0  0  0  0  0  0  0  0  0  0  0
    7.5339   -1.6238   27.7624 C   0  0  0  0  0  0  0  0  0  0  0  0
    6.0745   -1.0250   28.0130 N   0  0  0  0  0  0  0  0  0  0  0  0
    4.8991   -1.5488   28.9199 C   0  0  0  0  0  0  0  0  0  0  0  0
    3.7819   -2.3662   28.1839 C   0  0  0  0  0  0  0  0  0  0  0  0
    2.9370   -3.2469   29.0669 N   0  0  0  0  0  0  0  0  0  0  0  0
    1.4232   -3.5864   28.9993 C   0  0  0  0  0  0  0  0  0  0  0  0
    0.5878   -3.1753   28.2968 O   0  0  0  0  0  0  0  0  0  0  0  0
    0.9889   -4.5898   30.0034 C   0  0  0  0  0  0  0  0  0  0  0  0
    0.0026   -5.5661   29.8357 C   0  0  0  0  0  0  0  0  0  0  0  0
   -0.3416   -6.1918   31.0063 N   0  0  0  0  0  0  0  0  0  0  0  0
    0.4437   -5.6463   31.9034 C   0  0  0  0  0  0  0  0  0  0  0  0
    1.2828   -4.7070   31.3495 N   0  0  0  0  0  0  0  0  0  0  0  0
    4.2271   -0.4944   29.8427 C   0  0  0  0  0  0  0  0  0  0  0  0
    2.7226   -0.1826   29.9400 C   0  0  0  0  0  0  0  0  0  0  0  0
    3.3751   -0.9306   31.0506 C   0  0  0  0  0  0  0  0  0  0  0  0
    8.4938   -0.9064   26.7208 C   0  0  0  0  0  0  0  0  0  0  0  0
    9.5983   -1.6001   26.0083 C   0  0  0  0  0  0  0  0  0  0  0  0
   10.4481   -0.9178   25.2294 N   0  0  0  0  0  0  0  0  0  0  0  0
    9.9624    0.6553   25.1939 S   0  0  0  0  0  0  0  0  0  0  0  0
    8.6648    0.4267   26.3429 C   0  0  0  0  0  0  0  0  0  0  0  0
    5.9576   -0.1782   27.4731 H   0  0  0  0  0  0  0  0  0  0  0  0
    5.4192   -2.2507   29.5846 H   0  0  0  0  0  0  0  0  0  0  0  0
    3.1022   -1.7011   27.6398 H   0  0  0  0  0  0  0  0  0  0  0  0
    4.2389   -2.9851   27.4232 H   0  0  0  0  0  0  0  0  0  0  0  0
    3.3880   -3.8485   29.7410 H   0  0  0  0  0  0  0  0  0  0  0  0
   -0.5008   -5.8010   28.9056 H   0  0  0  0  0  0  0  0  0  0  0  0
    0.4639   -5.8828   32.9594 H   0  0  0  0  0  0  0  0  0  0  0  0
    1.9137   -4.1204   31.8744 H   0  0  0  0  0  0  0  0  0  0  0  0
    4.9134    0.3269   30.0304 H   0  0  0  0  0  0  0  0  0  0  0  0
    2.0023   -0.7012   29.3199 H   0  0  0  0  0  0  0  0  0  0  0  0
    2.4406    0.8508   30.1199 H   0  0  0  0  0  0  0  0  0  0  0  0
    3.1322   -1.9715   31.1945 H   0  0  0  0  0  0  0  0  0  0  0  0
    3.5361   -0.4021   31.9858 H   0  0  0  0  0  0  0  0  0  0  0  0
    9.8067   -2.6526   26.1554 H   0  0  0  0  0  0  0  0  0  0  0  0
    8.1105    1.2898   26.6801 H   0  0  0  0  0  0  0  0  0  0  0  0
  1  2  2  0
  2  3  1  0
  3  4  1  0
  4  5  1  0
  5  6  1  0
  6  7  1  0
  7  8  2  0
  7  9  1  0
  9 10  2  0
 10 11  1  0
 11 12  2  0
 12 13  1  0
  4 14  1  0
 14 15  1  0
 15 16  1  0
  2 17  1  0
 17 18  1  0
 18 19  2  0
 19 20  1  0
 20 21  1  0
 13  9  1  0
 16 14  1  0
 21 17  2  0
  3 22  1  0
  4 23  1  0
  5 24  1  0
  5 25  1  0
  6 26  1  0
 10 27  1  0
 12 28  1  0
 13 29  1  0
 14 30  1  0
 15 31  1  0
 15 32  1  0
 16 33  1  0
 16 34  1  0
 18 35  1  0
 21 36  1  0
M  END
>  <Energy>  (386) 
44.774775859019165

>  <compound_id>  (386) 
17876

>  <target_id>  (386) 
1

>  <reference_id>  (386) 
63

>  <inspiration_ids>  (386) 
[187, 63]

>  <energy_score>  (386) 
38.705940338908135

>  <distance_score>  (386) 
7.48004066552129

>  <path>  (386) 
/opt/xchem-fragalysis-2/maxwin/BulkDock/SCRATCH/511016/C17876-P63/C17876-P63.minimised.mol

>  <scratch_subdir>  (386) 
/opt/xchem-fragalysis-2/maxwin/BulkDock/SCRATCH/511016/C17876-P63

>  <fragmenstein_runtime>  (386) 
9.212180852890015

>  <fragmenstein_outcome>  (386) 
too moved

>  <fragmenstein_mode>  (386) 
expansion

>  <fragmenstein_error>  (386) 


$$$$
C17879-P187
     RDKit          3D

 39 40  0  0  0  0  0  0  0  0999 V2000
    6.3475   -2.1986   27.4187 C   0  0  0  0  0  0  0  0  0  0  0  0
    6.4631   -3.3826   26.4448 C   0  0  0  0  0  0  0  0  0  0  0  0
    5.8987   -3.1853   25.0515 N   0  0  0  0  0  0  0  0  0  0  0  0
    4.5911   -3.6391   25.7653 C   0  0  0  0  0  0  0  0  0  0  0  0
    4.3560   -5.0862   26.3243 C   0  0  0  0  0  0  0  0  0  0  0  0
    3.8209   -5.0159   27.6838 N   0  0  0  0  0  0  0  0  0  0  0  0
    2.5575   -4.5758   28.1667 C   0  0  0  0  0  0  0  0  0  0  0  0
    1.6413   -4.0794   27.5972 O   0  0  0  0  0  0  0  0  0  0  0  0
    2.3556   -4.8049   29.5809 C   0  0  0  0  0  0  0  0  0  0  0  0
    3.1714   -4.7147   30.6846 C   0  0  0  0  0  0  0  0  0  0  0  0
    2.4977   -5.0463   31.8350 N   0  0  0  0  0  0  0  0  0  0  0  0
    1.2500   -5.2235   31.4682 C   0  0  0  0  0  0  0  0  0  0  0  0
    1.1072   -5.0528   30.1236 N   0  0  0  0  0  0  0  0  0  0  0  0
    6.1239   -4.0110   23.7398 C   0  0  0  0  0  0  0  0  0  0  0  0
    6.7298   -5.0522   23.5643 O   0  0  0  0  0  0  0  0  0  0  0  0
    5.2775   -3.1440   22.0770 C   0  0  0  0  0  0  0  0  0  0  0  0
    5.3171   -3.8092   20.3452 O   0  0  0  0  0  0  0  0  0  0  0  0
    6.6062   -4.8350   20.0219 C   0  0  0  0  0  0  0  0  0  0  0  0
    7.5700   -4.5302   20.9093 C   0  0  0  0  0  0  0  0  0  0  0  0
    8.6611   -4.5622   20.2138 C   0  0  0  0  0  0  0  0  0  0  0  0
    9.4248   -5.9435   19.5112 S   0  0  0  0  0  0  0  0  0  0  0  0
    7.0730   -5.8676   19.1209 N   0  0  0  0  0  0  0  0  0  0  0  0
    7.1831   -2.2199   28.1271 H   0  0  0  0  0  0  0  0  0  0  0  0
    6.3813   -1.2443   26.8840 H   0  0  0  0  0  0  0  0  0  0  0  0
    5.4328   -2.2308   28.0174 H   0  0  0  0  0  0  0  0  0  0  0  0
    6.4453   -4.3702   26.9127 H   0  0  0  0  0  0  0  0  0  0  0  0
    7.5365   -3.3501   26.2103 H   0  0  0  0  0  0  0  0  0  0  0  0
    4.2751   -2.8733   26.4891 H   0  0  0  0  0  0  0  0  0  0  0  0
    3.7853   -3.4728   25.0514 H   0  0  0  0  0  0  0  0  0  0  0  0
    5.2246   -5.7489   26.3034 H   0  0  0  0  0  0  0  0  0  0  0  0
    3.5740   -5.5739   25.7374 H   0  0  0  0  0  0  0  0  0  0  0  0
    4.3237   -5.4666   28.4392 H   0  0  0  0  0  0  0  0  0  0  0  0
    4.2180   -4.4381   30.7187 H   0  0  0  0  0  0  0  0  0  0  0  0
    0.4193   -5.4550   32.1229 H   0  0  0  0  0  0  0  0  0  0  0  0
    0.2443   -5.0720   29.5927 H   0  0  0  0  0  0  0  0  0  0  0  0
    4.6322   -2.5614   22.8100 H   0  0  0  0  0  0  0  0  0  0  0  0
    5.4378   -2.1471   21.6345 H   0  0  0  0  0  0  0  0  0  0  0  0
    7.4485   -3.7692   21.5924 H   0  0  0  0  0  0  0  0  0  0  0  0
    9.6256   -5.1311   20.3866 H   0  0  0  0  0  0  0  0  0  0  0  0
  1  2  1  0
  2  3  1  0
  3  4  1  0
  4  5  1  0
  5  6  1  0
  6  7  1  0
  7  8  2  0
  7  9  1  0
  9 10  2  0
 10 11  1  0
 11 12  2  0
 12 13  1  0
  3 14  1  0
 14 15  2  0
 14 16  1  0
 16 17  1  0
 17 18  1  0
 18 19  1  0
 19 20  2  0
 20 21  1  0
 21 22  1  0
 13  9  1  0
 22 18  2  0
  1 23  1  0
  1 24  1  0
  1 25  1  0
  2 26  1  0
  2 27  1  0
  4 28  1  0
  4 29  1  0
  5 30  1  0
  5 31  1  0
  6 32  1  0
 10 33  1  0
 12 34  1  0
 13 35  1  0
 16 36  1  0
 16 37  1  0
 19 38  1  0
 20 39  1  0
M  END
>  <Energy>  (387) 
533.44749093411417

>  <compound_id>  (387) 
17879

>  <target_id>  (387) 
1

>  <reference_id>  (387) 
187

>  <inspiration_ids>  (387) 
[187, 63]

>  <energy_score>  (387) 
515.3194400606427

>  <distance_score>  (387) 
7.321573432874785

>  <path>  (387) 
/opt/xchem-fragalysis-2/maxwin/BulkDock/SCRATCH/511016/C17879-P187/C17879-P187.minimised.mol

>  <scratch_subdir>  (387) 
/opt/xchem-fragalysis-2/maxwin/BulkDock/SCRATCH/511016/C17879-P187

>  <fragmenstein_runtime>  (387) 
11.867088079452515

>  <fragmenstein_outcome>  (387) 
too moved

>  <fragmenstein_mode>  (387) 
expansion

>  <fragmenstein_error>  (387) 


$$$$
C17879-P63
     RDKit          3D

 39 40  0  0  0  0  0  0  0  0999 V2000
    4.9607   -0.7097   27.2081 C   0  0  0  0  0  0  0  0  0  0  0  0
    4.4568   -0.9003   25.7598 C   0  0  0  0  0  0  0  0  0  0  0  0
    5.2228   -2.0102   25.0349 N   0  0  0  0  0  0  0  0  0  0  0  0
    3.9460   -2.7816   25.3740 C   0  0  0  0  0  0  0  0  0  0  0  0
    2.9342   -2.6150   26.6978 C   0  0  0  0  0  0  0  0  0  0  0  0
    3.2036   -2.9793   28.0683 N   0  0  0  0  0  0  0  0  0  0  0  0
    2.3155   -3.3276   29.1393 C   0  0  0  0  0  0  0  0  0  0  0  0
    1.1220   -3.3280   29.1929 O   0  0  0  0  0  0  0  0  0  0  0  0
    2.9887   -3.8569   30.3155 C   0  0  0  0  0  0  0  0  0  0  0  0
    4.3005   -4.0254   30.7030 C   0  0  0  0  0  0  0  0  0  0  0  0
    4.3937   -4.7179   31.8864 N   0  0  0  0  0  0  0  0  0  0  0  0
    3.1545   -4.9483   32.2535 C   0  0  0  0  0  0  0  0  0  0  0  0
    2.2737   -4.4413   31.3487 N   0  0  0  0  0  0  0  0  0  0  0  0
    5.6020   -2.1906   23.4658 C   0  0  0  0  0  0  0  0  0  0  0  0
    5.2475   -1.4847   22.5335 O   0  0  0  0  0  0  0  0  0  0  0  0
    6.9605   -3.6110   22.7940 C   0  0  0  0  0  0  0  0  0  0  0  0
    8.1064   -3.7020   21.2056 O   0  0  0  0  0  0  0  0  0  0  0  0
    9.4462   -3.0451   20.1844 C   0  0  0  0  0  0  0  0  0  0  0  0
   11.5955   -2.8348   19.9197 C   0  0  0  0  0  0  0  0  0  0  0  0
   11.7402   -2.5267   18.0286 C   0  0  0  0  0  0  0  0  0  0  0  0
    9.8458   -1.5458   16.8814 S   0  0  0  0  0  0  0  0  0  0  0  0
    8.6224   -1.6860   19.1126 N   0  0  0  0  0  0  0  0  0  0  0  0
    5.3766   -1.6230   27.6370 H   0  0  0  0  0  0  0  0  0  0  0  0
    4.1658   -0.3171   27.8493 H   0  0  0  0  0  0  0  0  0  0  0  0
    5.7801    0.0205   27.2359 H   0  0  0  0  0  0  0  0  0  0  0  0
    3.4119   -0.6940   25.4805 H   0  0  0  0  0  0  0  0  0  0  0  0
    4.7988    0.0510   25.4319 H   0  0  0  0  0  0  0  0  0  0  0  0
    4.1499   -3.8072   25.1709 H   0  0  0  0  0  0  0  0  0  0  0  0
    3.3159   -2.5518   24.5058 H   0  0  0  0  0  0  0  0  0  0  0  0
    2.1300   -3.3123   26.5180 H   0  0  0  0  0  0  0  0  0  0  0  0
    2.4078   -1.6559   26.7458 H   0  0  0  0  0  0  0  0  0  0  0  0
    4.1550   -3.0177   28.4040 H   0  0  0  0  0  0  0  0  0  0  0  0
    5.1993   -3.7100   30.1888 H   0  0  0  0  0  0  0  0  0  0  0  0
    2.8374   -5.4825   33.1406 H   0  0  0  0  0  0  0  0  0  0  0  0
    1.2650   -4.5150   31.3785 H   0  0  0  0  0  0  0  0  0  0  0  0
    7.0461   -4.5904   23.2613 H   0  0  0  0  0  0  0  0  0  0  0  0
    6.1639   -3.2939   22.0044 H   0  0  0  0  0  0  0  0  0  0  0  0
   12.2897   -3.4960   20.4674 H   0  0  0  0  0  0  0  0  0  0  0  0
   12.5810   -2.6375   17.3556 H   0  0  0  0  0  0  0  0  0  0  0  0
  1  2  1  0
  2  3  1  0
  3  4  1  0
  4  5  1  0
  5  6  1  0
  6  7  1  0
  7  8  2  0
  7  9  1  0
  9 10  2  0
 10 11  1  0
 11 12  2  0
 12 13  1  0
  3 14  1  0
 14 15  2  0
 14 16  1  0
 16 17  1  0
 17 18  1  0
 18 19  1  0
 19 20  2  0
 20 21  1  0
 21 22  1  0
 13  9  1  0
 22 18  2  0
  1 23  1  0
  1 24  1  0
  1 25  1  0
  2 26  1  0
  2 27  1  0
  4 28  1  0
  4 29  1  0
  5 30  1  0
  5 31  1  0
  6 32  1  0
 10 33  1  0
 12 34  1  0
 13 35  1  0
 16 36  1  0
 16 37  1  0
 19 38  1  0
 20 39  1  0
M  END
>  <Energy>  (388) 
1111.9173152115097

>  <compound_id>  (388) 
17879

>  <target_id>  (388) 
1

>  <reference_id>  (388) 
63

>  <inspiration_ids>  (388) 
[187, 63]

>  <energy_score>  (388) 
1093.7892643380414

>  <distance_score>  (388) 
6.665408432283188

>  <path>  (388) 
/opt/xchem-fragalysis-2/maxwin/BulkDock/SCRATCH/511016/C17879-P63/C17879-P63.minimised.mol

>  <scratch_subdir>  (388) 
/opt/xchem-fragalysis-2/maxwin/BulkDock/SCRATCH/511016/C17879-P63

>  <fragmenstein_runtime>  (388) 
16.849225759506226

>  <fragmenstein_outcome>  (388) 
too moved

>  <fragmenstein_mode>  (388) 
expansion

>  <fragmenstein_error>  (388) 


$$$$
C17869-P187
     RDKit          3D

 40 42  0  0  0  0  0  0  0  0999 V2000
    2.1797   -4.7865   26.9531 O   0  0  0  0  0  0  0  0  0  0  0  0
    2.9832   -4.7119   27.8285 C   0  0  0  0  0  0  0  0  0  0  0  0
    4.3968   -4.6398   27.7807 N   0  0  0  0  0  0  0  0  0  0  0  0
    5.3033   -4.5385   26.6610 C   0  0  0  0  0  0  0  0  0  0  0  0
    5.8556   -5.9161   26.2042 C   0  0  0  0  0  0  0  0  0  0  0  0
    7.3292   -5.7750   25.6721 N   0  0  0  0  0  0  0  0  0  0  0  0
    7.5315   -6.6193   24.5184 C   0  0  0  0  0  0  0  0  0  0  0  0
    7.9181   -7.7617   24.4429 O   0  0  0  0  0  0  0  0  0  0  0  0
    7.1328   -5.7722   23.0206 C   0  0  0  0  0  0  0  0  0  0  0  0
    7.4957   -4.8289   21.6782 O   0  0  0  0  0  0  0  0  0  0  0  0
    8.4211   -4.7274   20.4740 C   0  0  0  0  0  0  0  0  0  0  0  0
    9.9047   -5.7298   20.0846 C   0  0  0  0  0  0  0  0  0  0  0  0
   11.2473   -5.4924   20.4606 C   0  0  0  0  0  0  0  0  0  0  0  0
   11.2681   -3.9712   21.3106 S   0  0  0  0  0  0  0  0  0  0  0  0
    9.0521   -3.5935   20.6182 N   0  0  0  0  0  0  0  0  0  0  0  0
    7.6419   -6.0107   27.1408 C   0  0  0  0  0  0  0  0  0  0  0  0
    9.0492   -6.5237   27.4231 C   0  0  0  0  0  0  0  0  0  0  0  0
    7.8753   -7.3847   27.7414 C   0  0  0  0  0  0  0  0  0  0  0  0
    2.4645   -4.7514   29.1961 C   0  0  0  0  0  0  0  0  0  0  0  0
    3.0230   -4.6318   30.4544 C   0  0  0  0  0  0  0  0  0  0  0  0
    2.1033   -4.8523   31.4486 N   0  0  0  0  0  0  0  0  0  0  0  0
    0.9603   -5.0144   30.8280 C   0  0  0  0  0  0  0  0  0  0  0  0
    1.1198   -4.9312   29.4773 N   0  0  0  0  0  0  0  0  0  0  0  0
    4.7501   -4.5021   28.7165 H   0  0  0  0  0  0  0  0  0  0  0  0
    4.7477   -4.0849   25.8342 H   0  0  0  0  0  0  0  0  0  0  0  0
    6.0851   -3.8258   26.9399 H   0  0  0  0  0  0  0  0  0  0  0  0
    5.2650   -6.2047   25.3224 H   0  0  0  0  0  0  0  0  0  0  0  0
    5.6510   -6.7531   26.8924 H   0  0  0  0  0  0  0  0  0  0  0  0
    6.5298   -6.5786   22.6071 H   0  0  0  0  0  0  0  0  0  0  0  0
    6.5247   -5.0218   23.5352 H   0  0  0  0  0  0  0  0  0  0  0  0
    9.5498   -6.4895   19.4697 H   0  0  0  0  0  0  0  0  0  0  0  0
   12.1767   -6.0206   20.3301 H   0  0  0  0  0  0  0  0  0  0  0  0
    7.4494   -5.1556   27.7907 H   0  0  0  0  0  0  0  0  0  0  0  0
    9.5962   -6.0755   28.2443 H   0  0  0  0  0  0  0  0  0  0  0  0
    9.6736   -6.8012   26.5813 H   0  0  0  0  0  0  0  0  0  0  0  0
    7.7123   -8.2583   27.1195 H   0  0  0  0  0  0  0  0  0  0  0  0
    7.6205   -7.5328   28.7839 H   0  0  0  0  0  0  0  0  0  0  0  0
    4.0520   -4.4243   30.7183 H   0  0  0  0  0  0  0  0  0  0  0  0
   -0.0010   -5.1827   31.2959 H   0  0  0  0  0  0  0  0  0  0  0  0
    0.3929   -5.0094   28.7741 H   0  0  0  0  0  0  0  0  0  0  0  0
  1  2  2  0
  2  3  1  0
  3  4  1  0
  4  5  1  0
  5  6  1  0
  6  7  1  0
  7  8  2  0
  7  9  1  0
  9 10  1  0
 10 11  1  0
 11 12  1  0
 12 13  2  0
 13 14  1  0
 14 15  1  0
  6 16  1  0
 16 17  1  0
 17 18  1  0
  2 19  1  0
 19 20  2  0
 20 21  1  0
 21 22  2  0
 22 23  1  0
 15 11  2  0
 18 16  1  0
 23 19  1  0
  3 24  1  0
  4 25  1  0
  4 26  1  0
  5 27  1  0
  5 28  1  0
  9 29  1  0
  9 30  1  0
 12 31  1  0
 13 32  1  0
 16 33  1  0
 17 34  1  0
 17 35  1  0
 18 36  1  0
 18 37  1  0
 20 38  1  0
 22 39  1  0
 23 40  1  0
M  END
>  <Energy>  (389) 
333.62028848681655

>  <compound_id>  (389) 
17869

>  <target_id>  (389) 
1

>  <reference_id>  (389) 
187

>  <inspiration_ids>  (389) 
[187, 63]

>  <energy_score>  (389) 
293.823546143661

>  <distance_score>  (389) 
7.482652913359832

>  <path>  (389) 
/opt/xchem-fragalysis-2/maxwin/BulkDock/SCRATCH/511016/C17869-P187/C17869-P187.minimised.mol

>  <scratch_subdir>  (389) 
/opt/xchem-fragalysis-2/maxwin/BulkDock/SCRATCH/511016/C17869-P187

>  <fragmenstein_runtime>  (389) 
11.831857681274414

>  <fragmenstein_outcome>  (389) 
too moved

>  <fragmenstein_mode>  (389) 
expansion

>  <fragmenstein_error>  (389) 


$$$$
C17869-P63
     RDKit          3D

 40 42  0  0  0  0  0  0  0  0999 V2000
    2.2013   -3.8401   30.5081 O   0  0  0  0  0  0  0  0  0  0  0  0
    1.3207   -4.1225   29.7528 C   0  0  0  0  0  0  0  0  0  0  0  0
    0.8522   -3.4586   28.5772 N   0  0  0  0  0  0  0  0  0  0  0  0
    1.2317   -2.1855   27.9847 C   0  0  0  0  0  0  0  0  0  0  0  0
    2.5766   -2.1206   27.1925 C   0  0  0  0  0  0  0  0  0  0  0  0
    3.0267   -0.8718   26.2308 N   0  0  0  0  0  0  0  0  0  0  0  0
    4.3273   -1.1178   25.6756 C   0  0  0  0  0  0  0  0  0  0  0  0
    5.4203   -0.8241   26.0922 O   0  0  0  0  0  0  0  0  0  0  0  0
    4.3005   -1.8507   24.1016 C   0  0  0  0  0  0  0  0  0  0  0  0
    5.3746   -1.7994   22.9318 O   0  0  0  0  0  0  0  0  0  0  0  0
    5.6999   -1.2112   21.6066 C   0  0  0  0  0  0  0  0  0  0  0  0
    6.8840   -0.1272   20.4391 C   0  0  0  0  0  0  0  0  0  0  0  0
    6.8182   -0.0541   18.7896 C   0  0  0  0  0  0  0  0  0  0  0  0
    7.4313   -0.8316   20.2385 S   0  0  0  0  0  0  0  0  0  0  0  0
    5.5337    0.0689   21.2949 N   0  0  0  0  0  0  0  0  0  0  0  0
    2.6111   -0.0825   27.4348 C   0  0  0  0  0  0  0  0  0  0  0  0
    1.3071    0.6958   27.5199 C   0  0  0  0  0  0  0  0  0  0  0  0
    2.5498    1.4249   27.1760 C   0  0  0  0  0  0  0  0  0  0  0  0
    0.4955   -5.2793   30.0990 C   0  0  0  0  0  0  0  0  0  0  0  0
   -0.3767   -6.0997   29.4042 C   0  0  0  0  0  0  0  0  0  0  0  0
   -1.0224   -6.9911   30.2365 N   0  0  0  0  0  0  0  0  0  0  0  0
   -0.4728   -6.8007   31.4124 C   0  0  0  0  0  0  0  0  0  0  0  0
    0.4782   -5.8232   31.3691 N   0  0  0  0  0  0  0  0  0  0  0  0
    0.0319   -3.9389   28.2327 H   0  0  0  0  0  0  0  0  0  0  0  0
    0.3877   -1.8575   27.3830 H   0  0  0  0  0  0  0  0  0  0  0  0
    1.2879   -1.5235   28.8556 H   0  0  0  0  0  0  0  0  0  0  0  0
    3.4253   -2.3346   27.8646 H   0  0  0  0  0  0  0  0  0  0  0  0
    2.6032   -2.9654   26.5052 H   0  0  0  0  0  0  0  0  0  0  0  0
    4.5526   -2.7954   24.5824 H   0  0  0  0  0  0  0  0  0  0  0  0
    3.3193   -2.1341   23.7388 H   0  0  0  0  0  0  0  0  0  0  0  0
    7.3506    1.0233   20.9603 H   0  0  0  0  0  0  0  0  0  0  0  0
    7.3623    0.5528   18.0816 H   0  0  0  0  0  0  0  0  0  0  0  0
    3.2280   -0.2507   28.3260 H   0  0  0  0  0  0  0  0  0  0  0  0
    0.8795    0.8685   28.5007 H   0  0  0  0  0  0  0  0  0  0  0  0
    0.5735    0.5658   26.7345 H   0  0  0  0  0  0  0  0  0  0  0  0
    2.6382    1.7805   26.1569 H   0  0  0  0  0  0  0  0  0  0  0  0
    2.9916    2.0788   27.9179 H   0  0  0  0  0  0  0  0  0  0  0  0
   -0.6127   -6.0783   28.3478 H   0  0  0  0  0  0  0  0  0  0  0  0
   -0.6903   -7.3455   32.3207 H   0  0  0  0  0  0  0  0  0  0  0  0
    1.0789   -5.5428   32.1343 H   0  0  0  0  0  0  0  0  0  0  0  0
  1  2  2  0
  2  3  1  0
  3  4  1  0
  4  5  1  0
  5  6  1  0
  6  7  1  0
  7  8  2  0
  7  9  1  0
  9 10  1  0
 10 11  1  0
 11 12  1  0
 12 13  2  0
 13 14  1  0
 14 15  1  0
  6 16  1  0
 16 17  1  0
 17 18  1  0
  2 19  1  0
 19 20  2  0
 20 21  1  0
 21 22  2  0
 22 23  1  0
 15 11  2  0
 18 16  1  0
 23 19  1  0
  3 24  1  0
  4 25  1  0
  4 26  1  0
  5 27  1  0
  5 28  1  0
  9 29  1  0
  9 30  1  0
 12 31  1  0
 13 32  1  0
 16 33  1  0
 17 34  1  0
 17 35  1  0
 18 36  1  0
 18 37  1  0
 20 38  1  0
 22 39  1  0
 23 40  1  0
M  END
>  <Energy>  (390) 
661.11619102063958

>  <compound_id>  (390) 
17869

>  <target_id>  (390) 
1

>  <reference_id>  (390) 
63

>  <inspiration_ids>  (390) 
[187, 63]

>  <energy_score>  (390) 
621.3194486774902

>  <distance_score>  (390) 
6.3941879495933565

>  <path>  (390) 
/opt/xchem-fragalysis-2/maxwin/BulkDock/SCRATCH/511016/C17869-P63/C17869-P63.minimised.mol

>  <scratch_subdir>  (390) 
/opt/xchem-fragalysis-2/maxwin/BulkDock/SCRATCH/511016/C17869-P63

>  <fragmenstein_runtime>  (390) 
12.979708194732666

>  <fragmenstein_outcome>  (390) 
too moved

>  <fragmenstein_mode>  (390) 
expansion

>  <fragmenstein_error>  (390) 


$$$$
C35733-P39
     RDKit          3D

 41 44  0  0  0  0  0  0  0  0999 V2000
  -11.2399  -19.9003   12.6124 O   0  0  0  0  0  0  0  0  0  0  0  0
  -10.4818  -20.0480   11.6865 C   0  0  0  0  0  0  0  0  0  0  0  0
  -10.0954  -21.6223   11.4303 C   0  0  0  0  0  0  0  0  0  0  0  0
   -9.2070  -22.5073   12.4303 C   0  0  0  0  0  0  0  0  0  0  0  0
   -7.8282  -22.4619   12.2736 C   0  0  0  0  0  0  0  0  0  0  0  0
   -7.2189  -23.3739   13.0790 N   0  0  0  0  0  0  0  0  0  0  0  0
   -8.1216  -23.9878   13.9047 C   0  0  0  0  0  0  0  0  0  0  0  0
   -7.8377  -24.8944   14.9475 C   0  0  0  0  0  0  0  0  0  0  0  0
   -8.8858  -25.4933   15.6234 C   0  0  0  0  0  0  0  0  0  0  0  0
  -10.1794  -25.2243   15.2199 C   0  0  0  0  0  0  0  0  0  0  0  0
  -11.4220  -25.9954   16.1824 Cl  0  0  0  0  0  0  0  0  0  0  0  0
  -10.4447  -24.3366   14.1155 C   0  0  0  0  0  0  0  0  0  0  0  0
   -9.3990  -23.5885   13.4805 C   0  0  0  0  0  0  0  0  0  0  0  0
   -9.9403  -19.0520   10.7053 N   0  0  0  0  0  0  0  0  0  0  0  0
  -10.2571  -17.5667   10.5102 C   0  0  0  0  0  0  0  0  0  0  0  0
   -9.3831  -16.5848    9.6548 C   0  0  0  0  0  0  0  0  0  0  0  0
   -8.3043  -16.8749    8.9437 N   0  0  0  0  0  0  0  0  0  0  0  0
   -7.7422  -15.7071    8.4374 N   0  0  0  0  0  0  0  0  0  0  0  0
   -8.4693  -14.6892    8.8318 C   0  0  0  0  0  0  0  0  0  0  0  0
   -9.5532  -15.1860    9.5275 N   0  0  0  0  0  0  0  0  0  0  0  0
  -10.5348  -14.2756   10.0922 C   0  0  0  0  0  0  0  0  0  0  0  0
  -10.4014  -12.8243    9.5484 C   0  0  0  0  0  0  0  0  0  0  0  0
   -9.0106  -12.3640    9.4959 N   0  0  0  0  0  0  0  0  0  0  0  0
   -8.2349  -13.2245    8.5873 C   0  0  0  0  0  0  0  0  0  0  0  0
   -9.6178  -21.6759   10.4430 H   0  0  0  0  0  0  0  0  0  0  0  0
  -11.0548  -22.1480   11.3300 H   0  0  0  0  0  0  0  0  0  0  0  0
   -7.2219  -21.8521   11.6156 H   0  0  0  0  0  0  0  0  0  0  0  0
   -6.2151  -23.4795   13.1651 H   0  0  0  0  0  0  0  0  0  0  0  0
   -6.8089  -25.1087   15.2236 H   0  0  0  0  0  0  0  0  0  0  0  0
   -8.6759  -26.1720   16.4435 H   0  0  0  0  0  0  0  0  0  0  0  0
  -11.4558  -24.1959   13.7508 H   0  0  0  0  0  0  0  0  0  0  0  0
   -9.2600  -19.5090   10.1074 H   0  0  0  0  0  0  0  0  0  0  0  0
  -10.3567  -17.1570   11.5213 H   0  0  0  0  0  0  0  0  0  0  0  0
  -11.2620  -17.5581   10.0712 H   0  0  0  0  0  0  0  0  0  0  0  0
  -11.5257  -14.6781    9.8589 H   0  0  0  0  0  0  0  0  0  0  0  0
  -10.3956  -14.2864   11.1777 H   0  0  0  0  0  0  0  0  0  0  0  0
  -10.9817  -12.1542   10.1922 H   0  0  0  0  0  0  0  0  0  0  0  0
  -10.8467  -12.7652    8.5468 H   0  0  0  0  0  0  0  0  0  0  0  0
   -8.9660  -11.4005    9.1669 H   0  0  0  0  0  0  0  0  0  0  0  0
   -7.1704  -13.0033    8.7174 H   0  0  0  0  0  0  0  0  0  0  0  0
   -8.4950  -12.9952    7.5471 H   0  0  0  0  0  0  0  0  0  0  0  0
  1  2  2  0
  2  3  1  0
  3  4  1  0
  4  5  2  0
  5  6  1  0
  6  7  1  0
  7  8  2  0
  8  9  1  0
  9 10  2  0
 10 11  1  0
 10 12  1  0
 12 13  2  0
  2 14  1  0
 14 15  1  0
 15 16  1  0
 16 17  2  0
 17 18  1  0
 18 19  2  0
 19 20  1  0
 20 21  1  0
 21 22  1  0
 22 23  1  0
 23 24  1  0
 13  4  1  0
 20 16  1  0
 13  7  1  0
 24 19  1  0
  3 25  1  0
  3 26  1  0
  5 27  1  0
  6 28  1  0
  8 29  1  0
  9 30  1  0
 12 31  1  0
 14 32  1  0
 15 33  1  0
 15 34  1  0
 21 35  1  0
 21 36  1  0
 22 37  1  0
 22 38  1  0
 23 39  1  0
 24 40  1  0
 24 41  1  0
M  END
>  <Energy>  (391) 
80.556764405442038

>  <compound_id>  (391) 
35733

>  <target_id>  (391) 
1

>  <reference_id>  (391) 
39

>  <inspiration_ids>  (391) 
[39, 65]

>  <energy_score>  (391) 
27.168408375401782

>  <distance_score>  (391) 
15.228539954158423

>  <path>  (391) 
/opt/xchem-fragalysis-2/maxwin/BulkDock/SCRATCH/511016/C35733-P39/C35733-P39.minimised.mol

>  <scratch_subdir>  (391) 
/opt/xchem-fragalysis-2/maxwin/BulkDock/SCRATCH/511016/C35733-P39

>  <fragmenstein_runtime>  (391) 
29.095686674118042

>  <fragmenstein_outcome>  (391) 
too moved

>  <fragmenstein_mode>  (391) 
expansion

>  <fragmenstein_error>  (391) 


$$$$
C35733-P65
     RDKit          3D

 41 44  0  0  0  0  0  0  0  0999 V2000
   -9.3317  -13.4291   20.5609 O   0  0  0  0  0  0  0  0  0  0  0  0
   -8.8256  -14.1863   19.7893 C   0  0  0  0  0  0  0  0  0  0  0  0
   -8.4219  -16.1024   20.4856 C   0  0  0  0  0  0  0  0  0  0  0  0
   -8.0929  -17.6836   21.7176 C   0  0  0  0  0  0  0  0  0  0  0  0
   -6.9614  -18.3744   21.3290 C   0  0  0  0  0  0  0  0  0  0  0  0
   -6.8842  -19.5167   22.0366 N   0  0  0  0  0  0  0  0  0  0  0  0
   -8.0644  -20.1651   22.3515 C   0  0  0  0  0  0  0  0  0  0  0  0
   -9.1450  -21.4385   21.7971 C   0  0  0  0  0  0  0  0  0  0  0  0
  -10.5177  -21.8204   21.8615 C   0  0  0  0  0  0  0  0  0  0  0  0
  -11.2079  -21.0875   22.6794 C   0  0  0  0  0  0  0  0  0  0  0  0
  -12.6870  -21.6590   23.3295 Cl  0  0  0  0  0  0  0  0  0  0  0  0
  -10.3414  -20.0592   23.2128 C   0  0  0  0  0  0  0  0  0  0  0  0
   -8.7257  -19.1344   22.8344 C   0  0  0  0  0  0  0  0  0  0  0  0
   -8.3142  -13.9030   18.3264 N   0  0  0  0  0  0  0  0  0  0  0  0
   -8.4148  -12.4954   17.3351 C   0  0  0  0  0  0  0  0  0  0  0  0
   -8.9487  -12.1247   15.3962 C   0  0  0  0  0  0  0  0  0  0  0  0
   -9.5239  -13.0150   14.5369 N   0  0  0  0  0  0  0  0  0  0  0  0
   -9.6778  -12.5590   13.2543 N   0  0  0  0  0  0  0  0  0  0  0  0
   -9.1685  -11.3676   13.1727 C   0  0  0  0  0  0  0  0  0  0  0  0
   -8.7707  -10.9451   14.4260 N   0  0  0  0  0  0  0  0  0  0  0  0
   -8.0529   -9.6510   14.4219 C   0  0  0  0  0  0  0  0  0  0  0  0
   -7.1007   -9.4992   13.1987 C   0  0  0  0  0  0  0  0  0  0  0  0
   -7.6027   -9.9371   11.8921 N   0  0  0  0  0  0  0  0  0  0  0  0
   -8.9417  -10.5436   11.9481 C   0  0  0  0  0  0  0  0  0  0  0  0
   -9.3010  -16.2585   19.8572 H   0  0  0  0  0  0  0  0  0  0  0  0
   -7.4509  -16.5070   20.1130 H   0  0  0  0  0  0  0  0  0  0  0  0
   -6.1896  -18.1270   20.6185 H   0  0  0  0  0  0  0  0  0  0  0  0
   -6.0604  -20.0640   21.8825 H   0  0  0  0  0  0  0  0  0  0  0  0
   -9.0473  -21.5248   20.6857 H   0  0  0  0  0  0  0  0  0  0  0  0
  -11.0129  -22.4458   21.1320 H   0  0  0  0  0  0  0  0  0  0  0  0
  -10.4835  -20.6428   24.1060 H   0  0  0  0  0  0  0  0  0  0  0  0
   -8.0212  -14.7716   17.9027 H   0  0  0  0  0  0  0  0  0  0  0  0
   -7.6620  -11.8362   17.8130 H   0  0  0  0  0  0  0  0  0  0  0  0
   -7.7775  -13.1883   16.8162 H   0  0  0  0  0  0  0  0  0  0  0  0
   -7.4554   -9.5200   15.3267 H   0  0  0  0  0  0  0  0  0  0  0  0
   -8.8392   -8.8937   14.4126 H   0  0  0  0  0  0  0  0  0  0  0  0
   -6.1860  -10.0726   13.3919 H   0  0  0  0  0  0  0  0  0  0  0  0
   -6.7503   -8.4653   13.1314 H   0  0  0  0  0  0  0  0  0  0  0  0
   -6.9642  -10.6363   11.5102 H   0  0  0  0  0  0  0  0  0  0  0  0
   -9.0739  -11.1696   11.0580 H   0  0  0  0  0  0  0  0  0  0  0  0
   -9.7151   -9.7813   11.8918 H   0  0  0  0  0  0  0  0  0  0  0  0
  1  2  2  0
  2  3  1  0
  3  4  1  0
  4  5  2  0
  5  6  1  0
  6  7  1  0
  7  8  2  0
  8  9  1  0
  9 10  2  0
 10 11  1  0
 10 12  1  0
 12 13  2  0
  2 14  1  0
 14 15  1  0
 15 16  1  0
 16 17  2  0
 17 18  1  0
 18 19  2  0
 19 20  1  0
 20 21  1  0
 21 22  1  0
 22 23  1  0
 23 24  1  0
 13  4  1  0
 20 16  1  0
 13  7  1  0
 24 19  1  0
  3 25  1  0
  3 26  1  0
  5 27  1  0
  6 28  1  0
  8 29  1  0
  9 30  1  0
 12 31  1  0
 14 32  1  0
 15 33  1  0
 15 34  1  0
 21 35  1  0
 21 36  1  0
 22 37  1  0
 22 38  1  0
 23 39  1  0
 24 40  1  0
 24 41  1  0
M  END
>  <Energy>  (392) 
785.69741712236385

>  <compound_id>  (392) 
35733

>  <target_id>  (392) 
1

>  <reference_id>  (392) 
65

>  <inspiration_ids>  (392) 
[39, 65]

>  <energy_score>  (392) 
732.3090610923392

>  <distance_score>  (392) 
11.128940245422967

>  <path>  (392) 
/opt/xchem-fragalysis-2/maxwin/BulkDock/SCRATCH/511016/C35733-P65/C35733-P65.minimised.mol

>  <scratch_subdir>  (392) 
/opt/xchem-fragalysis-2/maxwin/BulkDock/SCRATCH/511016/C35733-P65

>  <fragmenstein_runtime>  (392) 
33.91944670677185

>  <fragmenstein_outcome>  (392) 
too moved

>  <fragmenstein_mode>  (392) 
expansion

>  <fragmenstein_error>  (392) 


$$$$
C35733-P39
     RDKit          3D

 41 44  0  0  0  0  0  0  0  0999 V2000
  -11.2399  -19.9003   12.6124 O   0  0  0  0  0  0  0  0  0  0  0  0
  -10.4818  -20.0480   11.6865 C   0  0  0  0  0  0  0  0  0  0  0  0
  -10.0954  -21.6223   11.4303 C   0  0  0  0  0  0  0  0  0  0  0  0
   -9.2070  -22.5073   12.4303 C   0  0  0  0  0  0  0  0  0  0  0  0
   -7.8282  -22.4619   12.2736 C   0  0  0  0  0  0  0  0  0  0  0  0
   -7.2189  -23.3739   13.0790 N   0  0  0  0  0  0  0  0  0  0  0  0
   -8.1216  -23.9878   13.9047 C   0  0  0  0  0  0  0  0  0  0  0  0
   -7.8377  -24.8944   14.9475 C   0  0  0  0  0  0  0  0  0  0  0  0
   -8.8858  -25.4933   15.6234 C   0  0  0  0  0  0  0  0  0  0  0  0
  -10.1794  -25.2243   15.2199 C   0  0  0  0  0  0  0  0  0  0  0  0
  -11.4220  -25.9954   16.1824 Cl  0  0  0  0  0  0  0  0  0  0  0  0
  -10.4447  -24.3366   14.1155 C   0  0  0  0  0  0  0  0  0  0  0  0
   -9.3990  -23.5885   13.4805 C   0  0  0  0  0  0  0  0  0  0  0  0
   -9.9403  -19.0520   10.7053 N   0  0  0  0  0  0  0  0  0  0  0  0
  -10.2571  -17.5667   10.5102 C   0  0  0  0  0  0  0  0  0  0  0  0
   -9.3831  -16.5848    9.6548 C   0  0  0  0  0  0  0  0  0  0  0  0
   -8.3043  -16.8749    8.9437 N   0  0  0  0  0  0  0  0  0  0  0  0
   -7.7422  -15.7071    8.4374 N   0  0  0  0  0  0  0  0  0  0  0  0
   -8.4693  -14.6892    8.8318 C   0  0  0  0  0  0  0  0  0  0  0  0
   -9.5532  -15.1860    9.5275 N   0  0  0  0  0  0  0  0  0  0  0  0
  -10.5348  -14.2756   10.0922 C   0  0  0  0  0  0  0  0  0  0  0  0
  -10.4014  -12.8243    9.5484 C   0  0  0  0  0  0  0  0  0  0  0  0
   -9.0106  -12.3640    9.4959 N   0  0  0  0  0  0  0  0  0  0  0  0
   -8.2349  -13.2245    8.5873 C   0  0  0  0  0  0  0  0  0  0  0  0
   -9.6178  -21.6759   10.4430 H   0  0  0  0  0  0  0  0  0  0  0  0
  -11.0548  -22.1480   11.3300 H   0  0  0  0  0  0  0  0  0  0  0  0
   -7.2219  -21.8521   11.6156 H   0  0  0  0  0  0  0  0  0  0  0  0
   -6.2151  -23.4795   13.1651 H   0  0  0  0  0  0  0  0  0  0  0  0
   -6.8089  -25.1087   15.2236 H   0  0  0  0  0  0  0  0  0  0  0  0
   -8.6759  -26.1720   16.4435 H   0  0  0  0  0  0  0  0  0  0  0  0
  -11.4558  -24.1959   13.7508 H   0  0  0  0  0  0  0  0  0  0  0  0
   -9.2600  -19.5090   10.1074 H   0  0  0  0  0  0  0  0  0  0  0  0
  -10.3567  -17.1570   11.5213 H   0  0  0  0  0  0  0  0  0  0  0  0
  -11.2620  -17.5581   10.0712 H   0  0  0  0  0  0  0  0  0  0  0  0
  -11.5257  -14.6781    9.8589 H   0  0  0  0  0  0  0  0  0  0  0  0
  -10.3956  -14.2864   11.1777 H   0  0  0  0  0  0  0  0  0  0  0  0
  -10.9817  -12.1542   10.1922 H   0  0  0  0  0  0  0  0  0  0  0  0
  -10.8467  -12.7652    8.5468 H   0  0  0  0  0  0  0  0  0  0  0  0
   -8.9660  -11.4005    9.1669 H   0  0  0  0  0  0  0  0  0  0  0  0
   -7.1704  -13.0033    8.7174 H   0  0  0  0  0  0  0  0  0  0  0  0
   -8.4950  -12.9952    7.5471 H   0  0  0  0  0  0  0  0  0  0  0  0
  1  2  2  0
  2  3  1  0
  3  4  1  0
  4  5  2  0
  5  6  1  0
  6  7  1  0
  7  8  2  0
  8  9  1  0
  9 10  2  0
 10 11  1  0
 10 12  1  0
 12 13  2  0
  2 14  1  0
 14 15  1  0
 15 16  1  0
 16 17  2  0
 17 18  1  0
 18 19  2  0
 19 20  1  0
 20 21  1  0
 21 22  1  0
 22 23  1  0
 23 24  1  0
 13  4  1  0
 20 16  1  0
 13  7  1  0
 24 19  1  0
  3 25  1  0
  3 26  1  0
  5 27  1  0
  6 28  1  0
  8 29  1  0
  9 30  1  0
 12 31  1  0
 14 32  1  0
 15 33  1  0
 15 34  1  0
 21 35  1  0
 21 36  1  0
 22 37  1  0
 22 38  1  0
 23 39  1  0
 24 40  1  0
 24 41  1  0
M  END
>  <Energy>  (393) 
80.556764405442038

>  <compound_id>  (393) 
35733

>  <target_id>  (393) 
1

>  <reference_id>  (393) 
39

>  <inspiration_ids>  (393) 
[39, 65]

>  <energy_score>  (393) 
27.168408375401782

>  <distance_score>  (393) 
15.228539954158423

>  <path>  (393) 
/opt/xchem-fragalysis-2/maxwin/BulkDock/SCRATCH/511016/C35733-P39/C35733-P39.minimised.mol

>  <scratch_subdir>  (393) 
/opt/xchem-fragalysis-2/maxwin/BulkDock/SCRATCH/511016/C35733-P39

>  <fragmenstein_runtime>  (393) 
29.67473030090332

>  <fragmenstein_outcome>  (393) 
too moved

>  <fragmenstein_mode>  (393) 
expansion

>  <fragmenstein_error>  (393) 


$$$$
C35733-P65
     RDKit          3D

 41 44  0  0  0  0  0  0  0  0999 V2000
   -9.3317  -13.4291   20.5609 O   0  0  0  0  0  0  0  0  0  0  0  0
   -8.8256  -14.1863   19.7893 C   0  0  0  0  0  0  0  0  0  0  0  0
   -8.4219  -16.1024   20.4856 C   0  0  0  0  0  0  0  0  0  0  0  0
   -8.0929  -17.6836   21.7176 C   0  0  0  0  0  0  0  0  0  0  0  0
   -6.9614  -18.3744   21.3290 C   0  0  0  0  0  0  0  0  0  0  0  0
   -6.8842  -19.5167   22.0366 N   0  0  0  0  0  0  0  0  0  0  0  0
   -8.0644  -20.1651   22.3515 C   0  0  0  0  0  0  0  0  0  0  0  0
   -9.1450  -21.4385   21.7971 C   0  0  0  0  0  0  0  0  0  0  0  0
  -10.5177  -21.8204   21.8615 C   0  0  0  0  0  0  0  0  0  0  0  0
  -11.2079  -21.0875   22.6794 C   0  0  0  0  0  0  0  0  0  0  0  0
  -12.6870  -21.6590   23.3295 Cl  0  0  0  0  0  0  0  0  0  0  0  0
  -10.3414  -20.0592   23.2128 C   0  0  0  0  0  0  0  0  0  0  0  0
   -8.7257  -19.1344   22.8344 C   0  0  0  0  0  0  0  0  0  0  0  0
   -8.3142  -13.9030   18.3264 N   0  0  0  0  0  0  0  0  0  0  0  0
   -8.4148  -12.4954   17.3351 C   0  0  0  0  0  0  0  0  0  0  0  0
   -8.9487  -12.1247   15.3962 C   0  0  0  0  0  0  0  0  0  0  0  0
   -9.5239  -13.0150   14.5369 N   0  0  0  0  0  0  0  0  0  0  0  0
   -9.6778  -12.5590   13.2543 N   0  0  0  0  0  0  0  0  0  0  0  0
   -9.1685  -11.3676   13.1727 C   0  0  0  0  0  0  0  0  0  0  0  0
   -8.7707  -10.9451   14.4260 N   0  0  0  0  0  0  0  0  0  0  0  0
   -8.0529   -9.6510   14.4219 C   0  0  0  0  0  0  0  0  0  0  0  0
   -7.1007   -9.4992   13.1987 C   0  0  0  0  0  0  0  0  0  0  0  0
   -7.6027   -9.9371   11.8921 N   0  0  0  0  0  0  0  0  0  0  0  0
   -8.9417  -10.5436   11.9481 C   0  0  0  0  0  0  0  0  0  0  0  0
   -9.3010  -16.2585   19.8572 H   0  0  0  0  0  0  0  0  0  0  0  0
   -7.4509  -16.5070   20.1130 H   0  0  0  0  0  0  0  0  0  0  0  0
   -6.1896  -18.1270   20.6185 H   0  0  0  0  0  0  0  0  0  0  0  0
   -6.0604  -20.0640   21.8825 H   0  0  0  0  0  0  0  0  0  0  0  0
   -9.0473  -21.5248   20.6857 H   0  0  0  0  0  0  0  0  0  0  0  0
  -11.0129  -22.4458   21.1320 H   0  0  0  0  0  0  0  0  0  0  0  0
  -10.4835  -20.6428   24.1060 H   0  0  0  0  0  0  0  0  0  0  0  0
   -8.0212  -14.7716   17.9027 H   0  0  0  0  0  0  0  0  0  0  0  0
   -7.6620  -11.8362   17.8130 H   0  0  0  0  0  0  0  0  0  0  0  0
   -7.7775  -13.1883   16.8162 H   0  0  0  0  0  0  0  0  0  0  0  0
   -7.4554   -9.5200   15.3267 H   0  0  0  0  0  0  0  0  0  0  0  0
   -8.8392   -8.8937   14.4126 H   0  0  0  0  0  0  0  0  0  0  0  0
   -6.1860  -10.0726   13.3919 H   0  0  0  0  0  0  0  0  0  0  0  0
   -6.7503   -8.4653   13.1314 H   0  0  0  0  0  0  0  0  0  0  0  0
   -6.9642  -10.6363   11.5102 H   0  0  0  0  0  0  0  0  0  0  0  0
   -9.0739  -11.1696   11.0580 H   0  0  0  0  0  0  0  0  0  0  0  0
   -9.7151   -9.7813   11.8918 H   0  0  0  0  0  0  0  0  0  0  0  0
  1  2  2  0
  2  3  1  0
  3  4  1  0
  4  5  2  0
  5  6  1  0
  6  7  1  0
  7  8  2  0
  8  9  1  0
  9 10  2  0
 10 11  1  0
 10 12  1  0
 12 13  2  0
  2 14  1  0
 14 15  1  0
 15 16  1  0
 16 17  2  0
 17 18  1  0
 18 19  2  0
 19 20  1  0
 20 21  1  0
 21 22  1  0
 22 23  1  0
 23 24  1  0
 13  4  1  0
 20 16  1  0
 13  7  1  0
 24 19  1  0
  3 25  1  0
  3 26  1  0
  5 27  1  0
  6 28  1  0
  8 29  1  0
  9 30  1  0
 12 31  1  0
 14 32  1  0
 15 33  1  0
 15 34  1  0
 21 35  1  0
 21 36  1  0
 22 37  1  0
 22 38  1  0
 23 39  1  0
 24 40  1  0
 24 41  1  0
M  END
>  <Energy>  (394) 
785.69741712236385

>  <compound_id>  (394) 
35733

>  <target_id>  (394) 
1

>  <reference_id>  (394) 
65

>  <inspiration_ids>  (394) 
[39, 65]

>  <energy_score>  (394) 
732.3090610923392

>  <distance_score>  (394) 
11.128940245422967

>  <path>  (394) 
/opt/xchem-fragalysis-2/maxwin/BulkDock/SCRATCH/511016/C35733-P65/C35733-P65.minimised.mol

>  <scratch_subdir>  (394) 
/opt/xchem-fragalysis-2/maxwin/BulkDock/SCRATCH/511016/C35733-P65

>  <fragmenstein_runtime>  (394) 
22.482314825057983

>  <fragmenstein_outcome>  (394) 
too moved

>  <fragmenstein_mode>  (394) 
expansion

>  <fragmenstein_error>  (394) 


$$$$
C35736-P39
     RDKit          3D

 41 44  0  0  0  0  0  0  0  0999 V2000
   -0.8165  -16.9258   17.6737 O   0  0  0  0  0  0  0  0  0  0  0  0
   -1.9055  -16.6177   17.2671 C   0  0  0  0  0  0  0  0  0  0  0  0
   -3.1875  -17.5559   17.7284 C   0  0  0  0  0  0  0  0  0  0  0  0
   -3.0958  -18.4823   18.9352 N   0  0  0  0  0  0  0  0  0  0  0  0
   -1.9966  -19.2785   19.1901 C   0  0  0  0  0  0  0  0  0  0  0  0
   -2.2365  -20.0819   20.2821 C   0  0  0  0  0  0  0  0  0  0  0  0
   -3.5563  -19.8457   20.7226 C   0  0  0  0  0  0  0  0  0  0  0  0
   -4.3220  -20.4020   21.7804 C   0  0  0  0  0  0  0  0  0  0  0  0
   -5.6328  -19.9894   21.9783 C   0  0  0  0  0  0  0  0  0  0  0  0
   -6.1779  -19.0523   21.1168 C   0  0  0  0  0  0  0  0  0  0  0  0
   -5.4532  -18.5185   20.0314 C   0  0  0  0  0  0  0  0  0  0  0  0
   -4.1062  -18.8812   19.8498 C   0  0  0  0  0  0  0  0  0  0  0  0
   -2.3193  -15.5245   16.3269 N   0  0  0  0  0  0  0  0  0  0  0  0
   -1.4881  -14.5366   15.5224 C   0  0  0  0  0  0  0  0  0  0  0  0
   -1.9464  -13.0375   15.3972 C   0  0  0  0  0  0  0  0  0  0  0  0
   -2.2872  -12.2537   16.4141 N   0  0  0  0  0  0  0  0  0  0  0  0
   -2.5178  -10.9593   15.9703 N   0  0  0  0  0  0  0  0  0  0  0  0
   -2.3155  -10.9297   14.6754 C   0  0  0  0  0  0  0  0  0  0  0  0
   -1.9506  -12.2009   14.2644 N   0  0  0  0  0  0  0  0  0  0  0  0
   -1.7588  -12.4846   12.8544 C   0  0  0  0  0  0  0  0  0  0  0  0
   -1.6906  -11.1977   11.9828 C   0  0  0  0  0  0  0  0  0  0  0  0
   -2.6794  -10.1676   12.3488 N   0  0  0  0  0  0  0  0  0  0  0  0
   -2.4505   -9.7582   13.7485 C   0  0  0  0  0  0  0  0  0  0  0  0
   -3.3734  -18.2443   16.8952 H   0  0  0  0  0  0  0  0  0  0  0  0
   -4.0791  -16.9528   17.8844 H   0  0  0  0  0  0  0  0  0  0  0  0
   -1.1078  -19.1990   18.5781 H   0  0  0  0  0  0  0  0  0  0  0  0
   -1.5295  -20.7802   20.7091 H   0  0  0  0  0  0  0  0  0  0  0  0
   -3.8807  -21.1468   22.4354 H   0  0  0  0  0  0  0  0  0  0  0  0
   -6.2277  -20.4005   22.7839 H   0  0  0  0  0  0  0  0  0  0  0  0
   -7.1916  -18.7128   21.2883 H   0  0  0  0  0  0  0  0  0  0  0  0
   -5.9401  -17.8172   19.3692 H   0  0  0  0  0  0  0  0  0  0  0  0
   -3.3228  -15.5007   16.2690 H   0  0  0  0  0  0  0  0  0  0  0  0
   -1.4317  -14.9618   14.5149 H   0  0  0  0  0  0  0  0  0  0  0  0
   -0.4812  -14.5494   15.9526 H   0  0  0  0  0  0  0  0  0  0  0  0
   -0.8366  -13.0650   12.7532 H   0  0  0  0  0  0  0  0  0  0  0  0
   -2.6095  -13.1034   12.5478 H   0  0  0  0  0  0  0  0  0  0  0  0
   -0.6842  -10.7647   12.0517 H   0  0  0  0  0  0  0  0  0  0  0  0
   -1.8345  -11.4732   10.9321 H   0  0  0  0  0  0  0  0  0  0  0  0
   -3.6189  -10.5653   12.2953 H   0  0  0  0  0  0  0  0  0  0  0  0
   -1.5434   -9.1457   13.8072 H   0  0  0  0  0  0  0  0  0  0  0  0
   -3.2862   -9.1284   14.0722 H   0  0  0  0  0  0  0  0  0  0  0  0
  1  2  2  0
  2  3  1  0
  3  4  1  0
  4  5  1  0
  5  6  2  0
  6  7  1  0
  7  8  2  0
  8  9  1  0
  9 10  2  0
 10 11  1  0
 11 12  2  0
  2 13  1  0
 13 14  1  0
 14 15  1  0
 15 16  2  0
 16 17  1  0
 17 18  2  0
 18 19  1  0
 19 20  1  0
 20 21  1  0
 21 22  1  0
 22 23  1  0
 12  4  1  0
 19 15  1  0
 12  7  1  0
 23 18  1  0
  3 24  1  0
  3 25  1  0
  5 26  1  0
  6 27  1  0
  8 28  1  0
  9 29  1  0
 10 30  1  0
 11 31  1  0
 13 32  1  0
 14 33  1  0
 14 34  1  0
 20 35  1  0
 20 36  1  0
 21 37  1  0
 21 38  1  0
 22 39  1  0
 23 40  1  0
 23 41  1  0
M  END
>  <Energy>  (395) 
68.436382658513153

>  <compound_id>  (395) 
35736

>  <target_id>  (395) 
1

>  <reference_id>  (395) 
39

>  <inspiration_ids>  (395) 
[39, 65]

>  <energy_score>  (395) 
-4.336956995093999

>  <distance_score>  (395) 
13.051428550840624

>  <path>  (395) 
/opt/xchem-fragalysis-2/maxwin/BulkDock/SCRATCH/511016/C35736-P39/C35736-P39.minimised.mol

>  <scratch_subdir>  (395) 
/opt/xchem-fragalysis-2/maxwin/BulkDock/SCRATCH/511016/C35736-P39

>  <fragmenstein_runtime>  (395) 
26.941474199295044

>  <fragmenstein_outcome>  (395) 
too moved

>  <fragmenstein_mode>  (395) 
expansion

>  <fragmenstein_error>  (395) 


$$$$
C35736-P65
     RDKit          3D

 41 44  0  0  0  0  0  0  0  0999 V2000
   -6.8098  -15.7772   15.9390 O   0  0  0  0  0  0  0  0  0  0  0  0
   -8.0074  -15.7556   15.8015 C   0  0  0  0  0  0  0  0  0  0  0  0
   -8.9681  -16.8746   17.2493 C   0  0  0  0  0  0  0  0  0  0  0  0
  -10.9319  -17.5745   17.5356 N   0  0  0  0  0  0  0  0  0  0  0  0
  -12.2021  -17.9860   16.4229 C   0  0  0  0  0  0  0  0  0  0  0  0
  -13.1223  -19.1523   17.2729 C   0  0  0  0  0  0  0  0  0  0  0  0
  -12.3592  -19.7585   18.5035 C   0  0  0  0  0  0  0  0  0  0  0  0
  -12.1415  -21.4612   19.4302 C   0  0  0  0  0  0  0  0  0  0  0  0
  -11.5433  -21.6924   20.5464 C   0  0  0  0  0  0  0  0  0  0  0  0
  -11.8059  -20.4233   20.7202 C   0  0  0  0  0  0  0  0  0  0  0  0
  -12.4361  -19.0409   19.5716 C   0  0  0  0  0  0  0  0  0  0  0  0
  -11.5241  -18.4313   18.4866 C   0  0  0  0  0  0  0  0  0  0  0  0
   -8.9334  -14.7023   14.5525 N   0  0  0  0  0  0  0  0  0  0  0  0
   -8.4047  -13.5442   13.5024 C   0  0  0  0  0  0  0  0  0  0  0  0
   -8.7180  -12.2964   12.3948 C   0  0  0  0  0  0  0  0  0  0  0  0
   -9.8666  -12.1329   11.7422 N   0  0  0  0  0  0  0  0  0  0  0  0
   -9.7491  -11.1458   10.7958 N   0  0  0  0  0  0  0  0  0  0  0  0
   -8.5033  -10.7484   10.8009 C   0  0  0  0  0  0  0  0  0  0  0  0
   -7.8426  -11.3514   11.8467 N   0  0  0  0  0  0  0  0  0  0  0  0
   -6.4659  -10.9713   12.0649 C   0  0  0  0  0  0  0  0  0  0  0  0
   -6.1660   -9.5472   11.5543 C   0  0  0  0  0  0  0  0  0  0  0  0
   -6.4949   -9.3707   10.1490 N   0  0  0  0  0  0  0  0  0  0  0  0
   -7.8082   -9.9146    9.7840 C   0  0  0  0  0  0  0  0  0  0  0  0
   -8.4602  -17.8253   17.2970 H   0  0  0  0  0  0  0  0  0  0  0  0
   -8.9841  -16.1381   18.0718 H   0  0  0  0  0  0  0  0  0  0  0  0
  -12.4107  -17.6711   15.4099 H   0  0  0  0  0  0  0  0  0  0  0  0
  -13.6161  -19.9929   16.8015 H   0  0  0  0  0  0  0  0  0  0  0  0
  -12.7954  -22.2514   18.9917 H   0  0  0  0  0  0  0  0  0  0  0  0
  -11.3948  -22.5043   21.1985 H   0  0  0  0  0  0  0  0  0  0  0  0
  -11.7013  -20.3329   21.8049 H   0  0  0  0  0  0  0  0  0  0  0  0
  -12.2860  -18.0528   19.9177 H   0  0  0  0  0  0  0  0  0  0  0  0
   -9.8972  -14.9194   14.5776 H   0  0  0  0  0  0  0  0  0  0  0  0
   -8.9313  -12.8248   14.1791 H   0  0  0  0  0  0  0  0  0  0  0  0
   -9.2103  -14.0054   12.8854 H   0  0  0  0  0  0  0  0  0  0  0  0
   -6.2794  -10.9507   13.1248 H   0  0  0  0  0  0  0  0  0  0  0  0
   -5.8345  -11.7182   11.5735 H   0  0  0  0  0  0  0  0  0  0  0  0
   -6.7194   -8.8256   12.1635 H   0  0  0  0  0  0  0  0  0  0  0  0
   -5.1021   -9.3313   11.7010 H   0  0  0  0  0  0  0  0  0  0  0  0
   -6.4600   -8.3846    9.8932 H   0  0  0  0  0  0  0  0  0  0  0  0
   -7.6245  -10.5878    8.9417 H   0  0  0  0  0  0  0  0  0  0  0  0
   -8.4735   -9.1311    9.4260 H   0  0  0  0  0  0  0  0  0  0  0  0
  1  2  2  0
  2  3  1  0
  3  4  1  0
  4  5  1  0
  5  6  2  0
  6  7  1  0
  7  8  2  0
  8  9  1  0
  9 10  2  0
 10 11  1  0
 11 12  2  0
  2 13  1  0
 13 14  1  0
 14 15  1  0
 15 16  2  0
 16 17  1  0
 17 18  2  0
 18 19  1  0
 19 20  1  0
 20 21  1  0
 21 22  1  0
 22 23  1  0
 12  4  1  0
 19 15  1  0
 12  7  1  0
 23 18  1  0
  3 24  1  0
  3 25  1  0
  5 26  1  0
  6 27  1  0
  8 28  1  0
  9 29  1  0
 10 30  1  0
 11 31  1  0
 13 32  1  0
 14 33  1  0
 14 34  1  0
 20 35  1  0
 20 36  1  0
 21 37  1  0
 21 38  1  0
 22 39  1  0
 23 40  1  0
 23 41  1  0
M  END
>  <Energy>  (396) 
1061.4237407180979

>  <compound_id>  (396) 
35736

>  <target_id>  (396) 
1

>  <reference_id>  (396) 
65

>  <inspiration_ids>  (396) 
[39, 65]

>  <energy_score>  (396) 
988.6504010644977

>  <distance_score>  (396) 
11.464789442306381

>  <path>  (396) 
/opt/xchem-fragalysis-2/maxwin/BulkDock/SCRATCH/511016/C35736-P65/C35736-P65.minimised.mol

>  <scratch_subdir>  (396) 
/opt/xchem-fragalysis-2/maxwin/BulkDock/SCRATCH/511016/C35736-P65

>  <fragmenstein_runtime>  (396) 
31.03360891342163

>  <fragmenstein_outcome>  (396) 
too moved

>  <fragmenstein_mode>  (396) 
expansion

>  <fragmenstein_error>  (396) 


$$$$
C15855-P39
     RDKit          3D

 48 52  0  0  0  0  0  0  0  0999 V2000
  -12.9481  -15.4500    9.3742 O   0  0  0  0  0  0  0  0  0  0  0  0
  -12.5520  -14.7757   10.3318 C   0  0  0  0  0  0  0  0  0  0  0  0
  -12.1720  -15.5747   11.5698 C   0  0  0  0  0  0  0  0  0  0  0  0
  -10.8068  -15.7625   11.8591 C   0  0  0  0  0  0  0  0  0  0  0  0
  -10.3296  -16.9165   12.5011 C   0  0  0  0  0  0  0  0  0  0  0  0
  -11.1971  -17.9299   12.9210 C   0  0  0  0  0  0  0  0  0  0  0  0
  -12.5822  -17.7250   12.7988 C   0  0  0  0  0  0  0  0  0  0  0  0
  -13.7227  -18.5157   13.1306 C   0  0  0  0  0  0  0  0  0  0  0  0
  -14.8355  -17.8282   12.7305 C   0  0  0  0  0  0  0  0  0  0  0  0
  -14.4110  -16.6921   12.0918 N   0  0  0  0  0  0  0  0  0  0  0  0
  -13.0355  -16.5681   12.1366 C   0  0  0  0  0  0  0  0  0  0  0  0
  -12.3932  -13.3855   10.1380 N   0  0  0  0  0  0  0  0  0  0  0  0
  -11.1526  -12.7566    9.6758 C   0  0  0  0  0  0  0  0  0  0  0  0
  -11.2594  -11.2109    9.4378 C   0  0  0  0  0  0  0  0  0  0  0  0
  -12.4984  -10.7720    8.6106 C   0  0  0  0  0  0  0  0  0  0  0  0
  -12.8135   -9.2666    8.7010 C   0  0  0  0  0  0  0  0  0  0  0  0
  -13.8645   -8.7866    9.3860 N   0  0  0  0  0  0  0  0  0  0  0  0
  -13.7460   -7.4514    9.7995 N   0  0  0  0  0  0  0  0  0  0  0  0
  -12.5129   -7.0887    9.4818 C   0  0  0  0  0  0  0  0  0  0  0  0
  -12.1652   -8.1608    8.1657 N   0  0  0  0  0  0  0  0  0  0  0  0
  -10.6902   -7.7732    7.1314 C   0  0  0  0  0  0  0  0  0  0  0  0
   -9.7231   -6.0381    7.2961 C   0  0  0  0  0  0  0  0  0  0  0  0
   -9.9593   -4.9333    8.8001 N   0  0  0  0  0  0  0  0  0  0  0  0
  -11.1503   -5.5878   10.2209 C   0  0  0  0  0  0  0  0  0  0  0  0
  -13.7295  -11.6376    9.0902 C   0  0  0  0  0  0  0  0  0  0  0  0
  -13.4866  -12.4597   10.3895 C   0  0  0  0  0  0  0  0  0  0  0  0
  -10.0760  -15.0777   11.4348 H   0  0  0  0  0  0  0  0  0  0  0  0
   -9.2562  -17.0570   12.6143 H   0  0  0  0  0  0  0  0  0  0  0  0
  -10.7935  -18.8392   13.3552 H   0  0  0  0  0  0  0  0  0  0  0  0
  -13.7575  -19.4969   13.5734 H   0  0  0  0  0  0  0  0  0  0  0  0
  -15.8891  -18.0628   12.7927 H   0  0  0  0  0  0  0  0  0  0  0  0
  -15.0206  -16.0222   11.6445 H   0  0  0  0  0  0  0  0  0  0  0  0
  -10.8634  -13.2581    8.7452 H   0  0  0  0  0  0  0  0  0  0  0  0
  -10.3703  -12.9611   10.4135 H   0  0  0  0  0  0  0  0  0  0  0  0
  -10.3429  -10.8572    8.9503 H   0  0  0  0  0  0  0  0  0  0  0  0
  -11.2880  -10.7157   10.4180 H   0  0  0  0  0  0  0  0  0  0  0  0
  -12.3192  -10.9974    7.5513 H   0  0  0  0  0  0  0  0  0  0  0  0
  -10.1106   -8.6203    7.5080 H   0  0  0  0  0  0  0  0  0  0  0  0
  -11.1912   -7.8609    6.1627 H   0  0  0  0  0  0  0  0  0  0  0  0
   -8.6537   -5.8820    7.1340 H   0  0  0  0  0  0  0  0  0  0  0  0
  -10.0541   -5.4709    6.4007 H   0  0  0  0  0  0  0  0  0  0  0  0
   -9.1050   -4.5834    9.2171 H   0  0  0  0  0  0  0  0  0  0  0  0
  -11.6959   -5.2320   11.1966 H   0  0  0  0  0  0  0  0  0  0  0  0
  -10.3320   -5.4259   10.9665 H   0  0  0  0  0  0  0  0  0  0  0  0
  -14.6389  -11.0406    9.2125 H   0  0  0  0  0  0  0  0  0  0  0  0
  -13.9540  -12.3508    8.2843 H   0  0  0  0  0  0  0  0  0  0  0  0
  -14.3872  -13.0262   10.6498 H   0  0  0  0  0  0  0  0  0  0  0  0
  -13.2327  -11.8080   11.2297 H   0  0  0  0  0  0  0  0  0  0  0  0
  1  2  2  0
  2  3  1  0
  3  4  2  0
  4  5  1  0
  5  6  2  0
  6  7  1  0
  7  8  1  0
  8  9  2  0
  9 10  1  0
 10 11  1  0
  2 12  1  0
 12 13  1  0
 13 14  1  0
 14 15  1  0
 15 16  1  0
 16 17  2  0
 17 18  1  0
 18 19  2  0
 19 20  1  0
 20 21  1  0
 21 22  1  0
 22 23  1  0
 23 24  1  0
 15 25  1  0
 25 26  1  0
 11  3  1  0
 26 12  1  0
 11  7  2  0
 20 16  1  0
 24 19  1  0
  4 27  1  0
  5 28  1  0
  6 29  1  0
  8 30  1  0
  9 31  1  0
 10 32  1  0
 13 33  1  0
 13 34  1  0
 14 35  1  0
 14 36  1  0
 15 37  1  0
 21 38  1  0
 21 39  1  0
 22 40  1  0
 22 41  1  0
 23 42  1  0
 24 43  1  0
 24 44  1  0
 25 45  1  0
 25 46  1  0
 26 47  1  0
 26 48  1  0
M  END
>  <Energy>  (397) 
510.00406790749702

>  <compound_id>  (397) 
15855

>  <target_id>  (397) 
1

>  <reference_id>  (397) 
39

>  <inspiration_ids>  (397) 
[39, 65]

>  <energy_score>  (397) 
434.4251931887592

>  <distance_score>  (397) 
16.277622845606533

>  <path>  (397) 
/opt/xchem-fragalysis-2/maxwin/BulkDock/SCRATCH/511016/C15855-P39/C15855-P39.minimised.mol

>  <scratch_subdir>  (397) 
/opt/xchem-fragalysis-2/maxwin/BulkDock/SCRATCH/511016/C15855-P39

>  <fragmenstein_runtime>  (397) 
29.941996812820435

>  <fragmenstein_outcome>  (397) 
too moved

>  <fragmenstein_mode>  (397) 
expansion

>  <fragmenstein_error>  (397) 


$$$$
C15855-P65
     RDKit          3D

 48 52  0  0  0  0  0  0  0  0999 V2000
   -9.5135  -18.8212   15.1719 O   0  0  0  0  0  0  0  0  0  0  0  0
   -9.4472  -19.2687   14.0332 C   0  0  0  0  0  0  0  0  0  0  0  0
   -9.1731  -20.7881   14.0550 C   0  0  0  0  0  0  0  0  0  0  0  0
   -9.4150  -21.6012   12.9583 C   0  0  0  0  0  0  0  0  0  0  0  0
   -9.3120  -23.0009   13.0513 C   0  0  0  0  0  0  0  0  0  0  0  0
   -8.9372  -23.6653   14.2302 C   0  0  0  0  0  0  0  0  0  0  0  0
   -8.6865  -22.9125   15.3793 C   0  0  0  0  0  0  0  0  0  0  0  0
   -8.3010  -23.2638   16.7113 C   0  0  0  0  0  0  0  0  0  0  0  0
   -8.2715  -22.1050   17.4411 C   0  0  0  0  0  0  0  0  0  0  0  0
   -8.6853  -21.0995   16.6041 N   0  0  0  0  0  0  0  0  0  0  0  0
   -8.8491  -21.5242   15.2889 C   0  0  0  0  0  0  0  0  0  0  0  0
   -9.7215  -18.4552   12.8765 N   0  0  0  0  0  0  0  0  0  0  0  0
   -8.9811  -17.6265   12.0182 C   0  0  0  0  0  0  0  0  0  0  0  0
   -9.2710  -16.2887   10.8244 C   0  0  0  0  0  0  0  0  0  0  0  0
   -8.0919  -15.3108   11.0729 C   0  0  0  0  0  0  0  0  0  0  0  0
   -8.3988  -13.7901   11.0328 C   0  0  0  0  0  0  0  0  0  0  0  0
   -9.5974  -13.2503   11.2035 N   0  0  0  0  0  0  0  0  0  0  0  0
   -9.5358  -11.8819   11.0126 N   0  0  0  0  0  0  0  0  0  0  0  0
   -8.2962  -11.5684   10.7241 C   0  0  0  0  0  0  0  0  0  0  0  0
   -7.5471  -12.7283   10.7146 N   0  0  0  0  0  0  0  0  0  0  0  0
   -6.1485  -12.6987   10.3358 C   0  0  0  0  0  0  0  0  0  0  0  0
   -5.5556  -11.2665   10.3787 C   0  0  0  0  0  0  0  0  0  0  0  0
   -6.4239  -10.2500    9.7681 N   0  0  0  0  0  0  0  0  0  0  0  0
   -7.7186  -10.2069   10.4779 C   0  0  0  0  0  0  0  0  0  0  0  0
   -7.6190  -15.9359   12.3970 C   0  0  0  0  0  0  0  0  0  0  0  0
   -8.0811  -17.6901   12.3227 C   0  0  0  0  0  0  0  0  0  0  0  0
   -9.7337  -21.1556   12.0195 H   0  0  0  0  0  0  0  0  0  0  0  0
   -9.5293  -23.5991   12.1674 H   0  0  0  0  0  0  0  0  0  0  0  0
   -8.8586  -24.7479   14.2493 H   0  0  0  0  0  0  0  0  0  0  0  0
   -8.1008  -24.2570   17.0900 H   0  0  0  0  0  0  0  0  0  0  0  0
   -8.0683  -21.9121   18.4865 H   0  0  0  0  0  0  0  0  0  0  0  0
   -8.8584  -20.1408   16.8746 H   0  0  0  0  0  0  0  0  0  0  0  0
   -9.4481  -18.2748   11.1528 H   0  0  0  0  0  0  0  0  0  0  0  0
   -9.7602  -16.8907   12.5391 H   0  0  0  0  0  0  0  0  0  0  0  0
   -9.2111  -16.7123    9.8136 H   0  0  0  0  0  0  0  0  0  0  0  0
  -10.2687  -15.8566   10.9736 H   0  0  0  0  0  0  0  0  0  0  0  0
   -7.3306  -15.5063   10.3064 H   0  0  0  0  0  0  0  0  0  0  0  0
   -6.0949  -13.1038    9.3192 H   0  0  0  0  0  0  0  0  0  0  0  0
   -5.6028  -13.3604   11.0157 H   0  0  0  0  0  0  0  0  0  0  0  0
   -5.3531  -10.9848   11.4202 H   0  0  0  0  0  0  0  0  0  0  0  0
   -4.5877  -11.2661    9.8654 H   0  0  0  0  0  0  0  0  0  0  0  0
   -6.6026  -10.4939    8.7949 H   0  0  0  0  0  0  0  0  0  0  0  0
   -8.4242   -9.6172    9.8854 H   0  0  0  0  0  0  0  0  0  0  0  0
   -7.5868   -9.6985   11.4393 H   0  0  0  0  0  0  0  0  0  0  0  0
   -8.0841  -15.4922   13.2846 H   0  0  0  0  0  0  0  0  0  0  0  0
   -6.5284  -15.9014   12.4833 H   0  0  0  0  0  0  0  0  0  0  0  0
   -7.3708  -18.3496   11.6135 H   0  0  0  0  0  0  0  0  0  0  0  0
   -7.4830  -17.9904   13.2561 H   0  0  0  0  0  0  0  0  0  0  0  0
  1  2  2  0
  2  3  1  0
  3  4  2  0
  4  5  1  0
  5  6  2  0
  6  7  1  0
  7  8  1  0
  8  9  2  0
  9 10  1  0
 10 11  1  0
  2 12  1  0
 12 13  1  0
 13 14  1  0
 14 15  1  0
 15 16  1  0
 16 17  2  0
 17 18  1  0
 18 19  2  0
 19 20  1  0
 20 21  1  0
 21 22  1  0
 22 23  1  0
 23 24  1  0
 15 25  1  0
 25 26  1  0
 11  3  1  0
 26 12  1  0
 11  7  2  0
 20 16  1  0
 24 19  1  0
  4 27  1  0
  5 28  1  0
  6 29  1  0
  8 30  1  0
  9 31  1  0
 10 32  1  0
 13 33  1  0
 13 34  1  0
 14 35  1  0
 14 36  1  0
 15 37  1  0
 21 38  1  0
 21 39  1  0
 22 40  1  0
 22 41  1  0
 23 42  1  0
 24 43  1  0
 24 44  1  0
 25 45  1  0
 25 46  1  0
 26 47  1  0
 26 48  1  0
M  END
>  <Energy>  (398) 
644.96402142872375

>  <compound_id>  (398) 
15855

>  <target_id>  (398) 
1

>  <reference_id>  (398) 
65

>  <inspiration_ids>  (398) 
[39, 65]

>  <energy_score>  (398) 
569.3851467099867

>  <distance_score>  (398) 
14.512249756610224

>  <path>  (398) 
/opt/xchem-fragalysis-2/maxwin/BulkDock/SCRATCH/511016/C15855-P65/C15855-P65.minimised.mol

>  <scratch_subdir>  (398) 
/opt/xchem-fragalysis-2/maxwin/BulkDock/SCRATCH/511016/C15855-P65

>  <fragmenstein_runtime>  (398) 
42.49691891670227

>  <fragmenstein_outcome>  (398) 
too moved

>  <fragmenstein_mode>  (398) 
expansion

>  <fragmenstein_error>  (398) 


$$$$
C15855-P39
     RDKit          3D

 48 52  0  0  0  0  0  0  0  0999 V2000
  -12.9481  -15.4500    9.3742 O   0  0  0  0  0  0  0  0  0  0  0  0
  -12.5520  -14.7757   10.3318 C   0  0  0  0  0  0  0  0  0  0  0  0
  -12.1720  -15.5747   11.5698 C   0  0  0  0  0  0  0  0  0  0  0  0
  -10.8068  -15.7625   11.8591 C   0  0  0  0  0  0  0  0  0  0  0  0
  -10.3296  -16.9165   12.5011 C   0  0  0  0  0  0  0  0  0  0  0  0
  -11.1971  -17.9299   12.9210 C   0  0  0  0  0  0  0  0  0  0  0  0
  -12.5822  -17.7250   12.7988 C   0  0  0  0  0  0  0  0  0  0  0  0
  -13.7227  -18.5157   13.1306 C   0  0  0  0  0  0  0  0  0  0  0  0
  -14.8355  -17.8282   12.7305 C   0  0  0  0  0  0  0  0  0  0  0  0
  -14.4110  -16.6921   12.0918 N   0  0  0  0  0  0  0  0  0  0  0  0
  -13.0355  -16.5681   12.1366 C   0  0  0  0  0  0  0  0  0  0  0  0
  -12.3932  -13.3855   10.1380 N   0  0  0  0  0  0  0  0  0  0  0  0
  -11.1526  -12.7566    9.6758 C   0  0  0  0  0  0  0  0  0  0  0  0
  -11.2594  -11.2109    9.4378 C   0  0  0  0  0  0  0  0  0  0  0  0
  -12.4984  -10.7720    8.6106 C   0  0  0  0  0  0  0  0  0  0  0  0
  -12.8135   -9.2666    8.7010 C   0  0  0  0  0  0  0  0  0  0  0  0
  -13.8645   -8.7866    9.3860 N   0  0  0  0  0  0  0  0  0  0  0  0
  -13.7460   -7.4514    9.7995 N   0  0  0  0  0  0  0  0  0  0  0  0
  -12.5129   -7.0887    9.4818 C   0  0  0  0  0  0  0  0  0  0  0  0
  -12.1652   -8.1608    8.1657 N   0  0  0  0  0  0  0  0  0  0  0  0
  -10.6902   -7.7732    7.1314 C   0  0  0  0  0  0  0  0  0  0  0  0
   -9.7231   -6.0381    7.2961 C   0  0  0  0  0  0  0  0  0  0  0  0
   -9.9593   -4.9333    8.8001 N   0  0  0  0  0  0  0  0  0  0  0  0
  -11.1503   -5.5878   10.2209 C   0  0  0  0  0  0  0  0  0  0  0  0
  -13.7295  -11.6376    9.0902 C   0  0  0  0  0  0  0  0  0  0  0  0
  -13.4866  -12.4597   10.3895 C   0  0  0  0  0  0  0  0  0  0  0  0
  -10.0760  -15.0777   11.4348 H   0  0  0  0  0  0  0  0  0  0  0  0
   -9.2562  -17.0570   12.6143 H   0  0  0  0  0  0  0  0  0  0  0  0
  -10.7935  -18.8392   13.3552 H   0  0  0  0  0  0  0  0  0  0  0  0
  -13.7575  -19.4969   13.5734 H   0  0  0  0  0  0  0  0  0  0  0  0
  -15.8891  -18.0628   12.7927 H   0  0  0  0  0  0  0  0  0  0  0  0
  -15.0206  -16.0222   11.6445 H   0  0  0  0  0  0  0  0  0  0  0  0
  -10.8634  -13.2581    8.7452 H   0  0  0  0  0  0  0  0  0  0  0  0
  -10.3703  -12.9611   10.4135 H   0  0  0  0  0  0  0  0  0  0  0  0
  -10.3429  -10.8572    8.9503 H   0  0  0  0  0  0  0  0  0  0  0  0
  -11.2880  -10.7157   10.4180 H   0  0  0  0  0  0  0  0  0  0  0  0
  -12.3192  -10.9974    7.5513 H   0  0  0  0  0  0  0  0  0  0  0  0
  -10.1106   -8.6203    7.5080 H   0  0  0  0  0  0  0  0  0  0  0  0
  -11.1912   -7.8609    6.1627 H   0  0  0  0  0  0  0  0  0  0  0  0
   -8.6537   -5.8820    7.1340 H   0  0  0  0  0  0  0  0  0  0  0  0
  -10.0541   -5.4709    6.4007 H   0  0  0  0  0  0  0  0  0  0  0  0
   -9.1050   -4.5834    9.2171 H   0  0  0  0  0  0  0  0  0  0  0  0
  -11.6959   -5.2320   11.1966 H   0  0  0  0  0  0  0  0  0  0  0  0
  -10.3320   -5.4259   10.9665 H   0  0  0  0  0  0  0  0  0  0  0  0
  -14.6389  -11.0406    9.2125 H   0  0  0  0  0  0  0  0  0  0  0  0
  -13.9540  -12.3508    8.2843 H   0  0  0  0  0  0  0  0  0  0  0  0
  -14.3872  -13.0262   10.6498 H   0  0  0  0  0  0  0  0  0  0  0  0
  -13.2327  -11.8080   11.2297 H   0  0  0  0  0  0  0  0  0  0  0  0
  1  2  2  0
  2  3  1  0
  3  4  2  0
  4  5  1  0
  5  6  2  0
  6  7  1  0
  7  8  1  0
  8  9  2  0
  9 10  1  0
 10 11  1  0
  2 12  1  0
 12 13  1  0
 13 14  1  0
 14 15  1  0
 15 16  1  0
 16 17  2  0
 17 18  1  0
 18 19  2  0
 19 20  1  0
 20 21  1  0
 21 22  1  0
 22 23  1  0
 23 24  1  0
 15 25  1  0
 25 26  1  0
 11  3  1  0
 26 12  1  0
 11  7  2  0
 20 16  1  0
 24 19  1  0
  4 27  1  0
  5 28  1  0
  6 29  1  0
  8 30  1  0
  9 31  1  0
 10 32  1  0
 13 33  1  0
 13 34  1  0
 14 35  1  0
 14 36  1  0
 15 37  1  0
 21 38  1  0
 21 39  1  0
 22 40  1  0
 22 41  1  0
 23 42  1  0
 24 43  1  0
 24 44  1  0
 25 45  1  0
 25 46  1  0
 26 47  1  0
 26 48  1  0
M  END
>  <Energy>  (399) 
510.00406790749702

>  <compound_id>  (399) 
15855

>  <target_id>  (399) 
1

>  <reference_id>  (399) 
39

>  <inspiration_ids>  (399) 
[39, 65]

>  <energy_score>  (399) 
434.4251931887592

>  <distance_score>  (399) 
16.277622845606533

>  <path>  (399) 
/opt/xchem-fragalysis-2/maxwin/BulkDock/SCRATCH/511016/C15855-P39/C15855-P39.minimised.mol

>  <scratch_subdir>  (399) 
/opt/xchem-fragalysis-2/maxwin/BulkDock/SCRATCH/511016/C15855-P39

>  <fragmenstein_runtime>  (399) 
31.16250777244568

>  <fragmenstein_outcome>  (399) 
too moved

>  <fragmenstein_mode>  (399) 
expansion

>  <fragmenstein_error>  (399) 


$$$$
C15855-P65
     RDKit          3D

 48 52  0  0  0  0  0  0  0  0999 V2000
   -9.5135  -18.8212   15.1719 O   0  0  0  0  0  0  0  0  0  0  0  0
   -9.4472  -19.2687   14.0332 C   0  0  0  0  0  0  0  0  0  0  0  0
   -9.1731  -20.7881   14.0550 C   0  0  0  0  0  0  0  0  0  0  0  0
   -9.4150  -21.6012   12.9583 C   0  0  0  0  0  0  0  0  0  0  0  0
   -9.3120  -23.0009   13.0513 C   0  0  0  0  0  0  0  0  0  0  0  0
   -8.9372  -23.6653   14.2302 C   0  0  0  0  0  0  0  0  0  0  0  0
   -8.6865  -22.9125   15.3793 C   0  0  0  0  0  0  0  0  0  0  0  0
   -8.3010  -23.2638   16.7113 C   0  0  0  0  0  0  0  0  0  0  0  0
   -8.2715  -22.1050   17.4411 C   0  0  0  0  0  0  0  0  0  0  0  0
   -8.6853  -21.0995   16.6041 N   0  0  0  0  0  0  0  0  0  0  0  0
   -8.8491  -21.5242   15.2889 C   0  0  0  0  0  0  0  0  0  0  0  0
   -9.7215  -18.4552   12.8765 N   0  0  0  0  0  0  0  0  0  0  0  0
   -8.9811  -17.6265   12.0182 C   0  0  0  0  0  0  0  0  0  0  0  0
   -9.2710  -16.2887   10.8244 C   0  0  0  0  0  0  0  0  0  0  0  0
   -8.0919  -15.3108   11.0729 C   0  0  0  0  0  0  0  0  0  0  0  0
   -8.3988  -13.7901   11.0328 C   0  0  0  0  0  0  0  0  0  0  0  0
   -9.5974  -13.2503   11.2035 N   0  0  0  0  0  0  0  0  0  0  0  0
   -9.5358  -11.8819   11.0126 N   0  0  0  0  0  0  0  0  0  0  0  0
   -8.2962  -11.5684   10.7241 C   0  0  0  0  0  0  0  0  0  0  0  0
   -7.5471  -12.7283   10.7146 N   0  0  0  0  0  0  0  0  0  0  0  0
   -6.1485  -12.6987   10.3358 C   0  0  0  0  0  0  0  0  0  0  0  0
   -5.5556  -11.2665   10.3787 C   0  0  0  0  0  0  0  0  0  0  0  0
   -6.4239  -10.2500    9.7681 N   0  0  0  0  0  0  0  0  0  0  0  0
   -7.7186  -10.2069   10.4779 C   0  0  0  0  0  0  0  0  0  0  0  0
   -7.6190  -15.9359   12.3970 C   0  0  0  0  0  0  0  0  0  0  0  0
   -8.0811  -17.6901   12.3227 C   0  0  0  0  0  0  0  0  0  0  0  0
   -9.7337  -21.1556   12.0195 H   0  0  0  0  0  0  0  0  0  0  0  0
   -9.5293  -23.5991   12.1674 H   0  0  0  0  0  0  0  0  0  0  0  0
   -8.8586  -24.7479   14.2493 H   0  0  0  0  0  0  0  0  0  0  0  0
   -8.1008  -24.2570   17.0900 H   0  0  0  0  0  0  0  0  0  0  0  0
   -8.0683  -21.9121   18.4865 H   0  0  0  0  0  0  0  0  0  0  0  0
   -8.8584  -20.1408   16.8746 H   0  0  0  0  0  0  0  0  0  0  0  0
   -9.4481  -18.2748   11.1528 H   0  0  0  0  0  0  0  0  0  0  0  0
   -9.7602  -16.8907   12.5391 H   0  0  0  0  0  0  0  0  0  0  0  0
   -9.2111  -16.7123    9.8136 H   0  0  0  0  0  0  0  0  0  0  0  0
  -10.2687  -15.8566   10.9736 H   0  0  0  0  0  0  0  0  0  0  0  0
   -7.3306  -15.5063   10.3064 H   0  0  0  0  0  0  0  0  0  0  0  0
   -6.0949  -13.1038    9.3192 H   0  0  0  0  0  0  0  0  0  0  0  0
   -5.6028  -13.3604   11.0157 H   0  0  0  0  0  0  0  0  0  0  0  0
   -5.3531  -10.9848   11.4202 H   0  0  0  0  0  0  0  0  0  0  0  0
   -4.5877  -11.2661    9.8654 H   0  0  0  0  0  0  0  0  0  0  0  0
   -6.6026  -10.4939    8.7949 H   0  0  0  0  0  0  0  0  0  0  0  0
   -8.4242   -9.6172    9.8854 H   0  0  0  0  0  0  0  0  0  0  0  0
   -7.5868   -9.6985   11.4393 H   0  0  0  0  0  0  0  0  0  0  0  0
   -8.0841  -15.4922   13.2846 H   0  0  0  0  0  0  0  0  0  0  0  0
   -6.5284  -15.9014   12.4833 H   0  0  0  0  0  0  0  0  0  0  0  0
   -7.3708  -18.3496   11.6135 H   0  0  0  0  0  0  0  0  0  0  0  0
   -7.4830  -17.9904   13.2561 H   0  0  0  0  0  0  0  0  0  0  0  0
  1  2  2  0
  2  3  1  0
  3  4  2  0
  4  5  1  0
  5  6  2  0
  6  7  1  0
  7  8  1  0
  8  9  2  0
  9 10  1  0
 10 11  1  0
  2 12  1  0
 12 13  1  0
 13 14  1  0
 14 15  1  0
 15 16  1  0
 16 17  2  0
 17 18  1  0
 18 19  2  0
 19 20  1  0
 20 21  1  0
 21 22  1  0
 22 23  1  0
 23 24  1  0
 15 25  1  0
 25 26  1  0
 11  3  1  0
 26 12  1  0
 11  7  2  0
 20 16  1  0
 24 19  1  0
  4 27  1  0
  5 28  1  0
  6 29  1  0
  8 30  1  0
  9 31  1  0
 10 32  1  0
 13 33  1  0
 13 34  1  0
 14 35  1  0
 14 36  1  0
 15 37  1  0
 21 38  1  0
 21 39  1  0
 22 40  1  0
 22 41  1  0
 23 42  1  0
 24 43  1  0
 24 44  1  0
 25 45  1  0
 25 46  1  0
 26 47  1  0
 26 48  1  0
M  END
>  <Energy>  (400) 
644.96402142872375

>  <compound_id>  (400) 
15855

>  <target_id>  (400) 
1

>  <reference_id>  (400) 
65

>  <inspiration_ids>  (400) 
[39, 65]

>  <energy_score>  (400) 
569.3851467099867

>  <distance_score>  (400) 
14.512249756610224

>  <path>  (400) 
/opt/xchem-fragalysis-2/maxwin/BulkDock/SCRATCH/511016/C15855-P65/C15855-P65.minimised.mol

>  <scratch_subdir>  (400) 
/opt/xchem-fragalysis-2/maxwin/BulkDock/SCRATCH/511016/C15855-P65

>  <fragmenstein_runtime>  (400) 
41.55865144729614

>  <fragmenstein_outcome>  (400) 
too moved

>  <fragmenstein_mode>  (400) 
expansion

>  <fragmenstein_error>  (400) 


$$$$
C69300-P124
     RDKit          3D

 44 47  0  0  0  0  0  0  0  0999 V2000
   -1.7607   -2.7298   13.2193 C   0  0  0  0  0  0  0  0  0  0  0  0
   -0.4999   -2.8602   14.0469 C   0  0  0  0  0  0  0  0  0  0  0  0
    0.2761   -4.0115   14.9521 C   0  0  0  0  0  0  0  0  0  0  0  0
    1.7530   -4.3777   14.6125 N   0  0  0  0  0  0  0  0  0  0  0  0
    2.6175   -5.0352   15.6820 C   0  0  0  0  0  0  0  0  0  0  0  0
    4.1761   -4.8675   15.5374 C   0  0  0  0  0  0  0  0  0  0  0  0
    5.1014   -5.2799   14.5875 C   0  0  0  0  0  0  0  0  0  0  0  0
    6.3195   -4.7953   15.0161 N   0  0  0  0  0  0  0  0  0  0  0  0
    7.6267   -4.9198   14.3840 C   0  0  0  0  0  0  0  0  0  0  0  0
    8.1513   -3.5951   13.8115 C   0  0  0  0  0  0  0  0  0  0  0  0
    9.2772   -3.1981   14.7452 C   0  0  0  0  0  0  0  0  0  0  0  0
    9.8672   -4.4790   15.1032 N   0  0  0  0  0  0  0  0  0  0  0  0
    8.7403   -5.3869   15.3395 C   0  0  0  0  0  0  0  0  0  0  0  0
    6.1718   -4.0902   16.1526 N   0  0  0  0  0  0  0  0  0  0  0  0
    4.8923   -4.1632   16.5059 N   0  0  0  0  0  0  0  0  0  0  0  0
    0.5535   -1.4284   13.5238 C   0  0  0  0  0  0  0  0  0  0  0  0
    0.0537   -0.6159   12.1505 O   0  0  0  0  0  0  0  0  0  0  0  0
   -1.2207   -0.9864   11.3758 C   0  0  0  0  0  0  0  0  0  0  0  0
   -1.8324   -0.8126    9.4921 C   0  0  0  0  0  0  0  0  0  0  0  0
   -3.1992   -0.4947    8.9252 C   0  0  0  0  0  0  0  0  0  0  0  0
   -4.2262   -0.4038    9.9174 C   0  0  0  0  0  0  0  0  0  0  0  0
   -3.9441   -0.5058   11.6952 C   0  0  0  0  0  0  0  0  0  0  0  0
   -2.2014   -0.9695   12.3775 C   0  0  0  0  0  0  0  0  0  0  0  0
   -2.4660   -3.5359   13.3229 H   0  0  0  0  0  0  0  0  0  0  0  0
   -0.3178   -4.9302   14.8999 H   0  0  0  0  0  0  0  0  0  0  0  0
    0.2484   -3.6417   15.9832 H   0  0  0  0  0  0  0  0  0  0  0  0
    1.7582   -4.9769   13.7904 H   0  0  0  0  0  0  0  0  0  0  0  0
    2.3888   -6.1065   15.7003 H   0  0  0  0  0  0  0  0  0  0  0  0
    2.3398   -4.6183   16.6574 H   0  0  0  0  0  0  0  0  0  0  0  0
    4.9976   -5.8418   13.6715 H   0  0  0  0  0  0  0  0  0  0  0  0
    7.5050   -5.6410   13.5659 H   0  0  0  0  0  0  0  0  0  0  0  0
    8.5522   -3.7696   12.8046 H   0  0  0  0  0  0  0  0  0  0  0  0
    7.3870   -2.8146   13.7353 H   0  0  0  0  0  0  0  0  0  0  0  0
    8.8857   -2.6843   15.6295 H   0  0  0  0  0  0  0  0  0  0  0  0
   10.0023   -2.5417   14.2559 H   0  0  0  0  0  0  0  0  0  0  0  0
   10.4682   -4.4169   15.9253 H   0  0  0  0  0  0  0  0  0  0  0  0
    9.0392   -6.4168   15.1185 H   0  0  0  0  0  0  0  0  0  0  0  0
    8.4397   -5.3508   16.3920 H   0  0  0  0  0  0  0  0  0  0  0  0
    1.5347   -1.7679   13.3197 H   0  0  0  0  0  0  0  0  0  0  0  0
    0.8340   -0.6878   14.2444 H   0  0  0  0  0  0  0  0  0  0  0  0
   -1.4188   -1.3202    8.6417 H   0  0  0  0  0  0  0  0  0  0  0  0
   -3.4218   -0.6281    7.8764 H   0  0  0  0  0  0  0  0  0  0  0  0
   -5.2442   -0.4643    9.5063 H   0  0  0  0  0  0  0  0  0  0  0  0
   -4.9403   -0.6366   12.1405 H   0  0  0  0  0  0  0  0  0  0  0  0
  1  2  2  0
  2  3  1  0
  3  4  1  0
  4  5  1  0
  5  6  1  0
  6  7  2  0
  7  8  1  0
  8  9  1  0
  9 10  1  0
 10 11  1  0
 11 12  1  0
 12 13  1  0
  8 14  1  0
 14 15  2  0
  2 16  1  0
 16 17  1  0
 17 18  1  0
 18 19  2  0
 19 20  1  0
 20 21  2  0
 21 22  1  0
 22 23  2  0
 23  1  1  0
 15  6  1  0
 23 18  1  0
 13  9  1  0
  1 24  1  0
  3 25  1  0
  3 26  1  0
  4 27  1  0
  5 28  1  0
  5 29  1  0
  7 30  1  0
  9 31  1  0
 10 32  1  0
 10 33  1  0
 11 34  1  0
 11 35  1  0
 12 36  1  0
 13 37  1  0
 13 38  1  0
 16 39  1  0
 16 40  1  0
 19 41  1  0
 20 42  1  0
 21 43  1  0
 22 44  1  0
M  END
>  <Energy>  (401) 
510.05472865344473

>  <compound_id>  (401) 
69300

>  <target_id>  (401) 
1

>  <reference_id>  (401) 
124

>  <inspiration_ids>  (401) 
[91, 124]

>  <energy_score>  (401) 
446.0766956971567

>  <distance_score>  (401) 
9.494289495832975

>  <path>  (401) 
/opt/xchem-fragalysis-2/maxwin/BulkDock/SCRATCH/511016/C69300-P124/C69300-P124.minimised.mol

>  <scratch_subdir>  (401) 
/opt/xchem-fragalysis-2/maxwin/BulkDock/SCRATCH/511016/C69300-P124

>  <fragmenstein_runtime>  (401) 
21.9753577709198

>  <fragmenstein_outcome>  (401) 
too moved

>  <fragmenstein_mode>  (401) 
expansion

>  <fragmenstein_error>  (401) 


$$$$
C69300-P124
     RDKit          3D

 44 47  0  0  0  0  0  0  0  0999 V2000
   -1.7607   -2.7298   13.2193 C   0  0  0  0  0  0  0  0  0  0  0  0
   -0.4999   -2.8602   14.0469 C   0  0  0  0  0  0  0  0  0  0  0  0
    0.2761   -4.0115   14.9521 C   0  0  0  0  0  0  0  0  0  0  0  0
    1.7530   -4.3777   14.6125 N   0  0  0  0  0  0  0  0  0  0  0  0
    2.6175   -5.0352   15.6820 C   0  0  0  0  0  0  0  0  0  0  0  0
    4.1761   -4.8675   15.5374 C   0  0  0  0  0  0  0  0  0  0  0  0
    5.1014   -5.2799   14.5875 C   0  0  0  0  0  0  0  0  0  0  0  0
    6.3195   -4.7953   15.0161 N   0  0  0  0  0  0  0  0  0  0  0  0
    7.6267   -4.9198   14.3840 C   0  0  0  0  0  0  0  0  0  0  0  0
    8.1513   -3.5951   13.8115 C   0  0  0  0  0  0  0  0  0  0  0  0
    9.2772   -3.1981   14.7452 C   0  0  0  0  0  0  0  0  0  0  0  0
    9.8672   -4.4790   15.1032 N   0  0  0  0  0  0  0  0  0  0  0  0
    8.7403   -5.3869   15.3395 C   0  0  0  0  0  0  0  0  0  0  0  0
    6.1718   -4.0902   16.1526 N   0  0  0  0  0  0  0  0  0  0  0  0
    4.8923   -4.1632   16.5059 N   0  0  0  0  0  0  0  0  0  0  0  0
    0.5535   -1.4284   13.5238 C   0  0  0  0  0  0  0  0  0  0  0  0
    0.0537   -0.6159   12.1505 O   0  0  0  0  0  0  0  0  0  0  0  0
   -1.2207   -0.9864   11.3758 C   0  0  0  0  0  0  0  0  0  0  0  0
   -1.8324   -0.8126    9.4921 C   0  0  0  0  0  0  0  0  0  0  0  0
   -3.1992   -0.4947    8.9252 C   0  0  0  0  0  0  0  0  0  0  0  0
   -4.2262   -0.4038    9.9174 C   0  0  0  0  0  0  0  0  0  0  0  0
   -3.9441   -0.5058   11.6952 C   0  0  0  0  0  0  0  0  0  0  0  0
   -2.2014   -0.9695   12.3775 C   0  0  0  0  0  0  0  0  0  0  0  0
   -2.4660   -3.5359   13.3229 H   0  0  0  0  0  0  0  0  0  0  0  0
   -0.3178   -4.9302   14.8999 H   0  0  0  0  0  0  0  0  0  0  0  0
    0.2484   -3.6417   15.9832 H   0  0  0  0  0  0  0  0  0  0  0  0
    1.7582   -4.9769   13.7904 H   0  0  0  0  0  0  0  0  0  0  0  0
    2.3888   -6.1065   15.7003 H   0  0  0  0  0  0  0  0  0  0  0  0
    2.3398   -4.6183   16.6574 H   0  0  0  0  0  0  0  0  0  0  0  0
    4.9976   -5.8418   13.6715 H   0  0  0  0  0  0  0  0  0  0  0  0
    7.5050   -5.6410   13.5659 H   0  0  0  0  0  0  0  0  0  0  0  0
    8.5522   -3.7696   12.8046 H   0  0  0  0  0  0  0  0  0  0  0  0
    7.3870   -2.8146   13.7353 H   0  0  0  0  0  0  0  0  0  0  0  0
    8.8857   -2.6843   15.6295 H   0  0  0  0  0  0  0  0  0  0  0  0
   10.0023   -2.5417   14.2559 H   0  0  0  0  0  0  0  0  0  0  0  0
   10.4682   -4.4169   15.9253 H   0  0  0  0  0  0  0  0  0  0  0  0
    9.0392   -6.4168   15.1185 H   0  0  0  0  0  0  0  0  0  0  0  0
    8.4397   -5.3508   16.3920 H   0  0  0  0  0  0  0  0  0  0  0  0
    1.5347   -1.7679   13.3197 H   0  0  0  0  0  0  0  0  0  0  0  0
    0.8340   -0.6878   14.2444 H   0  0  0  0  0  0  0  0  0  0  0  0
   -1.4188   -1.3202    8.6417 H   0  0  0  0  0  0  0  0  0  0  0  0
   -3.4218   -0.6281    7.8764 H   0  0  0  0  0  0  0  0  0  0  0  0
   -5.2442   -0.4643    9.5063 H   0  0  0  0  0  0  0  0  0  0  0  0
   -4.9403   -0.6366   12.1405 H   0  0  0  0  0  0  0  0  0  0  0  0
  1  2  2  0
  2  3  1  0
  3  4  1  0
  4  5  1  0
  5  6  1  0
  6  7  2  0
  7  8  1  0
  8  9  1  0
  9 10  1  0
 10 11  1  0
 11 12  1  0
 12 13  1  0
  8 14  1  0
 14 15  2  0
  2 16  1  0
 16 17  1  0
 17 18  1  0
 18 19  2  0
 19 20  1  0
 20 21  2  0
 21 22  1  0
 22 23  2  0
 23  1  1  0
 15  6  1  0
 23 18  1  0
 13  9  1  0
  1 24  1  0
  3 25  1  0
  3 26  1  0
  4 27  1  0
  5 28  1  0
  5 29  1  0
  7 30  1  0
  9 31  1  0
 10 32  1  0
 10 33  1  0
 11 34  1  0
 11 35  1  0
 12 36  1  0
 13 37  1  0
 13 38  1  0
 16 39  1  0
 16 40  1  0
 19 41  1  0
 20 42  1  0
 21 43  1  0
 22 44  1  0
M  END
>  <Energy>  (402) 
510.05472865344473

>  <compound_id>  (402) 
69300

>  <target_id>  (402) 
1

>  <reference_id>  (402) 
124

>  <inspiration_ids>  (402) 
[91, 124]

>  <energy_score>  (402) 
446.0766956971567

>  <distance_score>  (402) 
9.494289495832975

>  <path>  (402) 
/opt/xchem-fragalysis-2/maxwin/BulkDock/SCRATCH/511016/C69300-P124/C69300-P124.minimised.mol

>  <scratch_subdir>  (402) 
/opt/xchem-fragalysis-2/maxwin/BulkDock/SCRATCH/511016/C69300-P124

>  <fragmenstein_runtime>  (402) 
18.883244276046753

>  <fragmenstein_outcome>  (402) 
too moved

>  <fragmenstein_mode>  (402) 
expansion

>  <fragmenstein_error>  (402) 


$$$$
C27266-P124
     RDKit          3D

 46 48  0  0  0  0  0  0  0  0999 V2000
   -5.5943   -0.4876    9.2404 C   0  0  0  0  0  0  0  0  0  0  0  0
   -4.1731   -0.4002   10.0558 C   0  0  0  0  0  0  0  0  0  0  0  0
   -3.2220   -0.5111    8.9088 C   0  0  0  0  0  0  0  0  0  0  0  0
   -1.8631   -0.9560    9.2248 C   0  0  0  0  0  0  0  0  0  0  0  0
   -0.9978   -1.2363   10.8882 C   0  0  0  0  0  0  0  0  0  0  0  0
   -1.7270   -0.6459   12.1066 C   0  0  0  0  0  0  0  0  0  0  0  0
   -3.6386   -0.4646   11.8703 C   0  0  0  0  0  0  0  0  0  0  0  0
   -0.0570   -0.3912   12.9349 C   0  0  0  0  0  0  0  0  0  0  0  0
    1.2936   -0.1675   12.9412 C   0  0  0  0  0  0  0  0  0  0  0  0
    2.1212    1.4177   13.1997 C   0  0  0  0  0  0  0  0  0  0  0  0
    2.9424    1.6462   12.3520 O   0  0  0  0  0  0  0  0  0  0  0  0
    1.7352    2.1872   14.3799 N   0  0  0  0  0  0  0  0  0  0  0  0
    2.1786    3.5796   14.8644 C   0  0  0  0  0  0  0  0  0  0  0  0
    3.2495    3.8364   16.1393 C   0  0  0  0  0  0  0  0  0  0  0  0
    2.6684    4.8925   17.0827 C   0  0  0  0  0  0  0  0  0  0  0  0
    4.7060    4.1610   15.9586 N   0  0  0  0  0  0  0  0  0  0  0  0
    5.5769    4.4746   17.0842 C   0  0  0  0  0  0  0  0  0  0  0  0
    6.9336    4.5263   16.3963 C   0  0  0  0  0  0  0  0  0  0  0  0
    6.6176    5.2459   15.0933 C   0  0  0  0  0  0  0  0  0  0  0  0
    5.1064    5.0443   14.8754 C   0  0  0  0  0  0  0  0  0  0  0  0
    1.8181   -0.8438   11.6887 C   0  0  0  0  0  0  0  0  0  0  0  0
    0.6255   -1.1224   10.5760 O   0  0  0  0  0  0  0  0  0  0  0  0
   -6.5064   -0.4289    9.8490 H   0  0  0  0  0  0  0  0  0  0  0  0
   -5.6356    0.3410    8.5194 H   0  0  0  0  0  0  0  0  0  0  0  0
   -5.6277   -1.4055    8.6446 H   0  0  0  0  0  0  0  0  0  0  0  0
   -3.5657   -0.5876    7.8831 H   0  0  0  0  0  0  0  0  0  0  0  0
   -1.5142   -1.4395    8.3185 H   0  0  0  0  0  0  0  0  0  0  0  0
   -4.6013   -0.5417   12.2911 H   0  0  0  0  0  0  0  0  0  0  0  0
    0.2184   -1.3954   13.3528 H   0  0  0  0  0  0  0  0  0  0  0  0
    1.0660    1.6539   14.9168 H   0  0  0  0  0  0  0  0  0  0  0  0
    1.2359    4.0796   15.1130 H   0  0  0  0  0  0  0  0  0  0  0  0
    2.5848    4.0872   13.9829 H   0  0  0  0  0  0  0  0  0  0  0  0
    3.1544    2.9082   16.6945 H   0  0  0  0  0  0  0  0  0  0  0  0
    1.6106    4.6871   17.2833 H   0  0  0  0  0  0  0  0  0  0  0  0
    3.1644    4.8999   18.0588 H   0  0  0  0  0  0  0  0  0  0  0  0
    2.7302    5.8961   16.6484 H   0  0  0  0  0  0  0  0  0  0  0  0
    5.5840    3.7425   17.8910 H   0  0  0  0  0  0  0  0  0  0  0  0
    5.3406    5.4546   17.5170 H   0  0  0  0  0  0  0  0  0  0  0  0
    7.3029    3.5139   16.1923 H   0  0  0  0  0  0  0  0  0  0  0  0
    7.6851    5.0551   16.9895 H   0  0  0  0  0  0  0  0  0  0  0  0
    7.2225    4.8638   14.2667 H   0  0  0  0  0  0  0  0  0  0  0  0
    6.8333    6.3165   15.1919 H   0  0  0  0  0  0  0  0  0  0  0  0
    4.9067    4.6246   13.8859 H   0  0  0  0  0  0  0  0  0  0  0  0
    4.5933    6.0110   14.9399 H   0  0  0  0  0  0  0  0  0  0  0  0
    2.4855   -1.6315   11.4923 H   0  0  0  0  0  0  0  0  0  0  0  0
    2.6125   -0.1492   11.3179 H   0  0  0  0  0  0  0  0  0  0  0  0
  1  2  1  0
  2  3  2  0
  3  4  1  0
  4  5  2  0
  5  6  1  0
  6  7  2  0
  6  8  1  0
  8  9  2  0
  9 10  1  0
 10 11  2  0
 10 12  1  0
 12 13  1  0
 13 14  1  0
 14 15  1  0
 14 16  1  0
 16 17  1  0
 17 18  1  0
 18 19  1  0
 19 20  1  0
  9 21  1  0
 21 22  1  0
  7  2  1  0
 20 16  1  0
 22  5  1  0
  1 23  1  0
  1 24  1  0
  1 25  1  0
  3 26  1  0
  4 27  1  0
  7 28  1  0
  8 29  1  0
 12 30  1  0
 13 31  1  0
 13 32  1  0
 14 33  1  0
 15 34  1  0
 15 35  1  0
 15 36  1  0
 17 37  1  0
 17 38  1  0
 18 39  1  0
 18 40  1  0
 19 41  1  0
 19 42  1  0
 20 43  1  0
 20 44  1  0
 21 45  1  0
 21 46  1  0
M  END
>  <Energy>  (403) 
602.93755482211554

>  <compound_id>  (403) 
27266

>  <target_id>  (403) 
1

>  <reference_id>  (403) 
124

>  <inspiration_ids>  (403) 
[91, 124]

>  <energy_score>  (403) 
543.3758946797951

>  <distance_score>  (403) 
9.721926119781019

>  <path>  (403) 
/opt/xchem-fragalysis-2/maxwin/BulkDock/SCRATCH/511016/C27266-P124/C27266-P124.minimised.mol

>  <scratch_subdir>  (403) 
/opt/xchem-fragalysis-2/maxwin/BulkDock/SCRATCH/511016/C27266-P124

>  <fragmenstein_runtime>  (403) 
9.431492328643799

>  <fragmenstein_outcome>  (403) 
too moved

>  <fragmenstein_mode>  (403) 
expansion

>  <fragmenstein_error>  (403) 


$$$$
C27267-P124
     RDKit          3D

 46 48  0  0  0  0  0  0  0  0999 V2000
  -10.0385    0.3744    8.3059 C   0  0  0  0  0  0  0  0  0  0  0  0
   -8.6057   -0.0090    8.5025 C   0  0  0  0  0  0  0  0  0  0  0  0
   -7.9023   -0.5342    7.4286 C   0  0  0  0  0  0  0  0  0  0  0  0
   -6.5954   -0.8897    7.6251 C   0  0  0  0  0  0  0  0  0  0  0  0
   -6.0360   -0.7693    8.9037 C   0  0  0  0  0  0  0  0  0  0  0  0
   -6.7220   -0.3698   10.1047 C   0  0  0  0  0  0  0  0  0  0  0  0
   -8.0126    0.0978    9.7943 C   0  0  0  0  0  0  0  0  0  0  0  0
   -5.7920   -0.3881   11.7103 C   0  0  0  0  0  0  0  0  0  0  0  0
   -4.3058   -0.2819   11.6020 C   0  0  0  0  0  0  0  0  0  0  0  0
   -2.7253    0.5601   12.5771 C   0  0  0  0  0  0  0  0  0  0  0  0
   -1.3523   -0.2999   12.2702 O   0  0  0  0  0  0  0  0  0  0  0  0
   -2.3153    1.4767   13.1742 N   0  0  0  0  0  0  0  0  0  0  0  0
   -0.8463    2.1495   13.8959 C   0  0  0  0  0  0  0  0  0  0  0  0
   -0.6995    2.6026   15.3827 C   0  0  0  0  0  0  0  0  0  0  0  0
    0.4033    3.6626   15.7796 C   0  0  0  0  0  0  0  0  0  0  0  0
    1.8493    3.4724   15.5624 N   0  0  0  0  0  0  0  0  0  0  0  0
    2.6367    4.1584   16.6141 C   0  0  0  0  0  0  0  0  0  0  0  0
    3.9677    4.5696   16.0102 C   0  0  0  0  0  0  0  0  0  0  0  0
    3.6182    4.8275   14.5585 C   0  0  0  0  0  0  0  0  0  0  0  0
    2.3247    4.0443   14.2855 C   0  0  0  0  0  0  0  0  0  0  0  0
   -3.9961   -0.2290    9.6934 C   0  0  0  0  0  0  0  0  0  0  0  0
   -4.7250   -1.1395    8.9046 O   0  0  0  0  0  0  0  0  0  0  0  0
  -10.2380    0.6540    7.2659 H   0  0  0  0  0  0  0  0  0  0  0  0
  -10.6903   -0.4627    8.5752 H   0  0  0  0  0  0  0  0  0  0  0  0
  -10.2998    1.2393    8.9249 H   0  0  0  0  0  0  0  0  0  0  0  0
   -8.3612   -0.6484    6.4516 H   0  0  0  0  0  0  0  0  0  0  0  0
   -5.9986   -1.2715    6.8031 H   0  0  0  0  0  0  0  0  0  0  0  0
   -8.6434    0.6063   10.4989 H   0  0  0  0  0  0  0  0  0  0  0  0
   -6.3016   -0.3240   12.6493 H   0  0  0  0  0  0  0  0  0  0  0  0
   -2.3874    2.3095   13.7198 H   0  0  0  0  0  0  0  0  0  0  0  0
   -0.0315    1.4461   13.8351 H   0  0  0  0  0  0  0  0  0  0  0  0
   -0.6417    3.0111   13.2445 H   0  0  0  0  0  0  0  0  0  0  0  0
   -1.6664    3.0080   15.7056 H   0  0  0  0  0  0  0  0  0  0  0  0
   -0.5113    1.7269   16.0094 H   0  0  0  0  0  0  0  0  0  0  0  0
    0.2524    3.7599   16.8657 H   0  0  0  0  0  0  0  0  0  0  0  0
    0.0849    4.6344   15.3776 H   0  0  0  0  0  0  0  0  0  0  0  0
    2.7626    3.5191   17.4925 H   0  0  0  0  0  0  0  0  0  0  0  0
    2.1241    5.0734   16.9427 H   0  0  0  0  0  0  0  0  0  0  0  0
    4.3672    5.4694   16.4901 H   0  0  0  0  0  0  0  0  0  0  0  0
    4.7256    3.7938   16.1221 H   0  0  0  0  0  0  0  0  0  0  0  0
    4.4304    4.5608   13.8764 H   0  0  0  0  0  0  0  0  0  0  0  0
    3.4230    5.8985   14.4210 H   0  0  0  0  0  0  0  0  0  0  0  0
    2.4764    3.2473   13.5507 H   0  0  0  0  0  0  0  0  0  0  0  0
    1.5966    4.7311   13.8357 H   0  0  0  0  0  0  0  0  0  0  0  0
   -2.9508   -0.3152    9.3418 H   0  0  0  0  0  0  0  0  0  0  0  0
   -4.1251    0.7396    9.2168 H   0  0  0  0  0  0  0  0  0  0  0  0
  1  2  1  0
  2  3  2  0
  3  4  1  0
  4  5  2  0
  5  6  1  0
  6  7  2  0
  6  8  1  0
  8  9  2  0
  9 10  1  0
 10 11  2  0
 10 12  1  0
 12 13  1  0
 13 14  1  0
 14 15  1  0
 15 16  1  0
 16 17  1  0
 17 18  1  0
 18 19  1  0
 19 20  1  0
  9 21  1  0
 21 22  1  0
  7  2  1  0
 20 16  1  0
 22  5  1  0
  1 23  1  0
  1 24  1  0
  1 25  1  0
  3 26  1  0
  4 27  1  0
  7 28  1  0
  8 29  1  0
 12 30  1  0
 13 31  1  0
 13 32  1  0
 14 33  1  0
 14 34  1  0
 15 35  1  0
 15 36  1  0
 17 37  1  0
 17 38  1  0
 18 39  1  0
 18 40  1  0
 19 41  1  0
 19 42  1  0
 20 43  1  0
 20 44  1  0
 21 45  1  0
 21 46  1  0
M  END
>  <Energy>  (404) 
443.03090408329274

>  <compound_id>  (404) 
27267

>  <target_id>  (404) 
1

>  <reference_id>  (404) 
124

>  <inspiration_ids>  (404) 
[91, 124]

>  <energy_score>  (404) 
404.84003022388674

>  <distance_score>  (404) 
10.331390675724412

>  <path>  (404) 
/opt/xchem-fragalysis-2/maxwin/BulkDock/SCRATCH/511016/C27267-P124/C27267-P124.minimised.mol

>  <scratch_subdir>  (404) 
/opt/xchem-fragalysis-2/maxwin/BulkDock/SCRATCH/511016/C27267-P124

>  <fragmenstein_runtime>  (404) 
11.93819808959961

>  <fragmenstein_outcome>  (404) 
too moved

>  <fragmenstein_mode>  (404) 
expansion

>  <fragmenstein_error>  (404) 


$$$$
C27278-P124
     RDKit          3D

 47 49  0  0  0  0  0  0  0  0999 V2000
   -5.7970   -2.2673    6.9365 C   0  0  0  0  0  0  0  0  0  0  0  0
   -4.3744   -2.4078    7.0880 O   0  0  0  0  0  0  0  0  0  0  0  0
   -3.7148   -1.4801    7.8486 C   0  0  0  0  0  0  0  0  0  0  0  0
   -4.3827   -0.4472    8.3799 C   0  0  0  0  0  0  0  0  0  0  0  0
   -3.5915    0.2728    9.1968 C   0  0  0  0  0  0  0  0  0  0  0  0
   -2.2774   -0.1494    9.6684 C   0  0  0  0  0  0  0  0  0  0  0  0
   -1.4368   -1.0274    9.1592 C   0  0  0  0  0  0  0  0  0  0  0  0
   -2.2613   -1.5814    8.0968 C   0  0  0  0  0  0  0  0  0  0  0  0
    0.4062   -1.2266   10.0395 C   0  0  0  0  0  0  0  0  0  0  0  0
    1.3103   -1.0048   11.1527 C   0  0  0  0  0  0  0  0  0  0  0  0
    3.0319   -0.0006   11.4465 C   0  0  0  0  0  0  0  0  0  0  0  0
    3.0681    1.2009   11.6366 O   0  0  0  0  0  0  0  0  0  0  0  0
    4.4027   -1.1062   11.4506 N   0  0  0  0  0  0  0  0  0  0  0  0
    6.2443   -0.8250   11.8634 C   0  0  0  0  0  0  0  0  0  0  0  0
    6.7118   -2.1705   12.5923 C   0  0  0  0  0  0  0  0  0  0  0  0
    7.8711   -0.3589   10.9875 C   0  0  0  0  0  0  0  0  0  0  0  0
    9.1084    0.5504   11.3731 N   0  0  0  0  0  0  0  0  0  0  0  0
    9.9133    0.9288   12.5678 C   0  0  0  0  0  0  0  0  0  0  0  0
   10.5054    2.2789   12.2318 C   0  0  0  0  0  0  0  0  0  0  0  0
   10.8567    2.1004   10.7700 C   0  0  0  0  0  0  0  0  0  0  0  0
    9.7031    1.2679   10.2129 C   0  0  0  0  0  0  0  0  0  0  0  0
   -0.0345   -0.5353   12.2291 C   0  0  0  0  0  0  0  0  0  0  0  0
   -1.7292   -0.2503   11.5681 O   0  0  0  0  0  0  0  0  0  0  0  0
   -6.0404   -1.4237    6.2815 H   0  0  0  0  0  0  0  0  0  0  0  0
   -6.1745   -3.1843    6.4743 H   0  0  0  0  0  0  0  0  0  0  0  0
   -6.3196   -2.1231    7.8832 H   0  0  0  0  0  0  0  0  0  0  0  0
   -5.3641   -0.1076    8.0951 H   0  0  0  0  0  0  0  0  0  0  0  0
   -3.6444    1.3409    9.0091 H   0  0  0  0  0  0  0  0  0  0  0  0
   -1.7604   -2.0785    7.3251 H   0  0  0  0  0  0  0  0  0  0  0  0
    1.0455   -1.8387    9.3714 H   0  0  0  0  0  0  0  0  0  0  0  0
    4.0553   -2.0847   11.3483 H   0  0  0  0  0  0  0  0  0  0  0  0
    6.2091   -0.8811   10.8000 H   0  0  0  0  0  0  0  0  0  0  0  0
    5.9542   -2.9533   12.7171 H   0  0  0  0  0  0  0  0  0  0  0  0
    7.4513   -2.7098   11.9971 H   0  0  0  0  0  0  0  0  0  0  0  0
    7.0954   -1.9400   13.5888 H   0  0  0  0  0  0  0  0  0  0  0  0
    8.2745   -1.3076   10.6049 H   0  0  0  0  0  0  0  0  0  0  0  0
    7.5383    0.1120   10.0406 H   0  0  0  0  0  0  0  0  0  0  0  0
   10.7779    0.2694   12.7145 H   0  0  0  0  0  0  0  0  0  0  0  0
    9.3832    0.8954   13.5153 H   0  0  0  0  0  0  0  0  0  0  0  0
   11.3817    2.5210   12.8400 H   0  0  0  0  0  0  0  0  0  0  0  0
    9.7642    3.0767   12.3546 H   0  0  0  0  0  0  0  0  0  0  0  0
   10.9634    3.0589   10.2533 H   0  0  0  0  0  0  0  0  0  0  0  0
   11.8028    1.5554   10.6769 H   0  0  0  0  0  0  0  0  0  0  0  0
   10.0348    0.6115    9.4081 H   0  0  0  0  0  0  0  0  0  0  0  0
    8.9730    1.9478    9.7592 H   0  0  0  0  0  0  0  0  0  0  0  0
    0.0916   -1.2535   13.0485 H   0  0  0  0  0  0  0  0  0  0  0  0
    0.2536    0.0688   13.1093 H   0  0  0  0  0  0  0  0  0  0  0  0
  1  2  1  0
  2  3  1  0
  3  4  2  0
  4  5  1  0
  5  6  2  0
  6  7  1  0
  7  8  2  0
  7  9  1  0
  9 10  2  0
 10 11  1  0
 11 12  2  0
 11 13  1  0
 13 14  1  0
 14 15  1  0
 14 16  1  0
 16 17  1  0
 17 18  1  0
 18 19  1  0
 19 20  1  0
 20 21  1  0
 10 22  1  0
 22 23  1  0
  8  3  1  0
 21 17  1  0
 23  6  1  0
  1 24  1  0
  1 25  1  0
  1 26  1  0
  4 27  1  0
  5 28  1  0
  8 29  1  0
  9 30  1  0
 13 31  1  0
 14 32  1  0
 15 33  1  0
 15 34  1  0
 15 35  1  0
 16 36  1  0
 16 37  1  0
 18 38  1  0
 18 39  1  0
 19 40  1  0
 19 41  1  0
 20 42  1  0
 20 43  1  0
 21 44  1  0
 21 45  1  0
 22 46  1  0
 22 47  1  0
M  END
>  <Energy>  (405) 
767.80305275880573

>  <compound_id>  (405) 
27278

>  <target_id>  (405) 
1

>  <reference_id>  (405) 
124

>  <inspiration_ids>  (405) 
[91, 124]

>  <energy_score>  (405) 
709.7109065731114

>  <distance_score>  (405) 
7.575291908829702

>  <path>  (405) 
/opt/xchem-fragalysis-2/maxwin/BulkDock/SCRATCH/511016/C27278-P124/C27278-P124.minimised.mol

>  <scratch_subdir>  (405) 
/opt/xchem-fragalysis-2/maxwin/BulkDock/SCRATCH/511016/C27278-P124

>  <fragmenstein_runtime>  (405) 
12.564414978027344

>  <fragmenstein_outcome>  (405) 
too moved

>  <fragmenstein_mode>  (405) 
expansion

>  <fragmenstein_error>  (405) 


$$$$
C27293-P124
     RDKit          3D

 50 52  0  0  0  0  0  0  0  0999 V2000
   -6.6543   -1.2281    6.9371 C   0  0  0  0  0  0  0  0  0  0  0  0
   -5.4776   -1.7761    7.5208 O   0  0  0  0  0  0  0  0  0  0  0  0
   -4.6908   -0.9081    8.1504 C   0  0  0  0  0  0  0  0  0  0  0  0
   -4.6766    0.4026    8.2086 C   0  0  0  0  0  0  0  0  0  0  0  0
   -3.3671    0.9427    8.6007 C   0  0  0  0  0  0  0  0  0  0  0  0
   -2.1296    0.3057    8.7458 C   0  0  0  0  0  0  0  0  0  0  0  0
   -2.6414   -0.2026    9.7338 C   0  0  0  0  0  0  0  0  0  0  0  0
   -3.6584   -1.2622    8.9405 C   0  0  0  0  0  0  0  0  0  0  0  0
   -1.6999   -0.4189   11.6288 C   0  0  0  0  0  0  0  0  0  0  0  0
   -0.3593   -0.5243   11.8903 C   0  0  0  0  0  0  0  0  0  0  0  0
    0.7264   -0.1852   13.2544 C   0  0  0  0  0  0  0  0  0  0  0  0
    1.1045   -1.2142   13.7403 O   0  0  0  0  0  0  0  0  0  0  0  0
    0.9795    1.4100   13.7515 N   0  0  0  0  0  0  0  0  0  0  0  0
    2.2122    1.9571   13.1062 C   0  0  0  0  0  0  0  0  0  0  0  0
    1.7109    1.9984   15.1089 C   0  0  0  0  0  0  0  0  0  0  0  0
    2.3237    3.5483   15.3133 C   0  0  0  0  0  0  0  0  0  0  0  0
    3.3081    3.9139   16.5336 C   0  0  0  0  0  0  0  0  0  0  0  0
    4.7857    3.9478   16.3884 N   0  0  0  0  0  0  0  0  0  0  0  0
    5.5703    4.2823   17.5816 C   0  0  0  0  0  0  0  0  0  0  0  0
    6.9911    4.3400   17.0316 C   0  0  0  0  0  0  0  0  0  0  0  0
    6.8111    4.9386   15.6457 C   0  0  0  0  0  0  0  0  0  0  0  0
    5.3008    4.8766   15.3777 C   0  0  0  0  0  0  0  0  0  0  0  0
    0.2115   -1.0413   10.2688 C   0  0  0  0  0  0  0  0  0  0  0  0
   -1.3436   -0.9668    9.0905 O   0  0  0  0  0  0  0  0  0  0  0  0
   -6.4063   -0.5151    6.1436 H   0  0  0  0  0  0  0  0  0  0  0  0
   -7.2882   -0.7590    7.6975 H   0  0  0  0  0  0  0  0  0  0  0  0
   -7.2195   -2.0498    6.4871 H   0  0  0  0  0  0  0  0  0  0  0  0
   -5.4757    1.0422    7.8613 H   0  0  0  0  0  0  0  0  0  0  0  0
   -3.2951    2.0489    8.6044 H   0  0  0  0  0  0  0  0  0  0  0  0
   -3.2279   -2.2443    8.7312 H   0  0  0  0  0  0  0  0  0  0  0  0
   -2.4686   -0.3926   12.4081 H   0  0  0  0  0  0  0  0  0  0  0  0
    3.0755    1.4428   13.4342 H   0  0  0  0  0  0  0  0  0  0  0  0
    2.1781    3.0333   12.9526 H   0  0  0  0  0  0  0  0  0  0  0  0
    2.4170    1.5947   12.1033 H   0  0  0  0  0  0  0  0  0  0  0  0
    0.8348    2.0020   15.7768 H   0  0  0  0  0  0  0  0  0  0  0  0
    2.3230    1.2910   15.6012 H   0  0  0  0  0  0  0  0  0  0  0  0
    2.7894    3.9670   14.4208 H   0  0  0  0  0  0  0  0  0  0  0  0
    1.4236    4.1647   15.4537 H   0  0  0  0  0  0  0  0  0  0  0  0
    3.0018    4.9156   16.8661 H   0  0  0  0  0  0  0  0  0  0  0  0
    3.0206    3.2423   17.3387 H   0  0  0  0  0  0  0  0  0  0  0  0
    5.5108    3.5575   18.3897 H   0  0  0  0  0  0  0  0  0  0  0  0
    5.2751    5.2599   17.9843 H   0  0  0  0  0  0  0  0  0  0  0  0
    7.6524    4.9441   17.6597 H   0  0  0  0  0  0  0  0  0  0  0  0
    7.4216    3.3354   16.9505 H   0  0  0  0  0  0  0  0  0  0  0  0
    7.3936    4.3797   14.9093 H   0  0  0  0  0  0  0  0  0  0  0  0
    7.1563    5.9781   15.6208 H   0  0  0  0  0  0  0  0  0  0  0  0
    4.8686    5.8766   15.5151 H   0  0  0  0  0  0  0  0  0  0  0  0
    5.0890    4.5689   14.3512 H   0  0  0  0  0  0  0  0  0  0  0  0
    1.0206   -0.4264    9.8618 H   0  0  0  0  0  0  0  0  0  0  0  0
    0.7944   -1.9067   10.0435 H   0  0  0  0  0  0  0  0  0  0  0  0
  1  2  1  0
  2  3  1  0
  3  4  2  0
  4  5  1  0
  5  6  2  0
  6  7  1  0
  7  8  2  0
  7  9  1  0
  9 10  2  0
 10 11  1  0
 11 12  2  0
 11 13  1  0
 13 14  1  0
 13 15  1  0
 15 16  1  0
 16 17  1  0
 17 18  1  0
 18 19  1  0
 19 20  1  0
 20 21  1  0
 21 22  1  0
 10 23  1  0
 23 24  1  0
  8  3  1  0
 22 18  1  0
 24  6  1  0
  1 25  1  0
  1 26  1  0
  1 27  1  0
  4 28  1  0
  5 29  1  0
  8 30  1  0
  9 31  1  0
 14 32  1  0
 14 33  1  0
 14 34  1  0
 15 35  1  0
 15 36  1  0
 16 37  1  0
 16 38  1  0
 17 39  1  0
 17 40  1  0
 19 41  1  0
 19 42  1  0
 20 43  1  0
 20 44  1  0
 21 45  1  0
 21 46  1  0
 22 47  1  0
 22 48  1  0
 23 49  1  0
 23 50  1  0
M  END
>  <Energy>  (406) 
701.7171406274806

>  <compound_id>  (406) 
27293

>  <target_id>  (406) 
1

>  <reference_id>  (406) 
124

>  <inspiration_ids>  (406) 
[91, 124]

>  <energy_score>  (406) 
638.3770787855215

>  <distance_score>  (406) 
8.954193778418379

>  <path>  (406) 
/opt/xchem-fragalysis-2/maxwin/BulkDock/SCRATCH/511016/C27293-P124/C27293-P124.minimised.mol

>  <scratch_subdir>  (406) 
/opt/xchem-fragalysis-2/maxwin/BulkDock/SCRATCH/511016/C27293-P124

>  <fragmenstein_runtime>  (406) 
10.185566663742065

>  <fragmenstein_outcome>  (406) 
too moved

>  <fragmenstein_mode>  (406) 
expansion

>  <fragmenstein_error>  (406) 


$$$$
C27300-P124
     RDKit          3D

 47 49  0  0  0  0  0  0  0  0999 V2000
    2.7640    3.7316    6.7282 C   0  0  0  0  0  0  0  0  0  0  0  0
    1.5486    3.8785    7.4538 O   0  0  0  0  0  0  0  0  0  0  0  0
    1.6494    4.2881    8.7547 C   0  0  0  0  0  0  0  0  0  0  0  0
    0.4572    4.8326    9.2335 C   0  0  0  0  0  0  0  0  0  0  0  0
    0.3500    5.2508   10.5567 C   0  0  0  0  0  0  0  0  0  0  0  0
    1.4417    5.1401   11.4125 C   0  0  0  0  0  0  0  0  0  0  0  0
    2.6637    4.6501   10.9383 C   0  0  0  0  0  0  0  0  0  0  0  0
    2.7615    4.2118    9.6110 C   0  0  0  0  0  0  0  0  0  0  0  0
    3.9367    3.6728    9.1696 O   0  0  0  0  0  0  0  0  0  0  0  0
    5.1516    4.1492    9.7884 C   0  0  0  0  0  0  0  0  0  0  0  0
    5.0885    4.5481   11.2412 C   0  0  0  0  0  0  0  0  0  0  0  0
    6.3299    5.0252   12.0745 C   0  0  0  0  0  0  0  0  0  0  0  0
    6.0687    5.7262   13.0112 O   0  0  0  0  0  0  0  0  0  0  0  0
    7.6092    4.6220   11.5260 N   0  0  0  0  0  0  0  0  0  0  0  0
    8.9869    5.0235   11.8822 C   0  0  0  0  0  0  0  0  0  0  0  0
    9.9085    4.5056   13.0898 C   0  0  0  0  0  0  0  0  0  0  0  0
    9.2459    4.2842   14.4537 C   0  0  0  0  0  0  0  0  0  0  0  0
   10.9893    3.5560   12.7170 N   0  0  0  0  0  0  0  0  0  0  0  0
   12.1409    3.5864   13.6353 C   0  0  0  0  0  0  0  0  0  0  0  0
   12.9837    2.3886   13.2226 C   0  0  0  0  0  0  0  0  0  0  0  0
   12.0158    1.4507   12.5193 C   0  0  0  0  0  0  0  0  0  0  0  0
   10.6580    2.1467   12.5777 C   0  0  0  0  0  0  0  0  0  0  0  0
    3.8626    4.6991   11.7919 C   0  0  0  0  0  0  0  0  0  0  0  0
    3.4133    4.6065    6.8388 H   0  0  0  0  0  0  0  0  0  0  0  0
    3.2749    2.8063    7.0088 H   0  0  0  0  0  0  0  0  0  0  0  0
    2.5060    3.6521    5.6674 H   0  0  0  0  0  0  0  0  0  0  0  0
   -0.4091    4.9091    8.5795 H   0  0  0  0  0  0  0  0  0  0  0  0
   -0.5936    5.6475   10.9218 H   0  0  0  0  0  0  0  0  0  0  0  0
    1.3453    5.4798   12.4409 H   0  0  0  0  0  0  0  0  0  0  0  0
    5.5160    4.9941    9.1919 H   0  0  0  0  0  0  0  0  0  0  0  0
    5.8662    3.3311    9.6620 H   0  0  0  0  0  0  0  0  0  0  0  0
    7.4533    4.0932   10.6813 H   0  0  0  0  0  0  0  0  0  0  0  0
    9.5627    4.9104   10.9548 H   0  0  0  0  0  0  0  0  0  0  0  0
    8.8949    6.1081   12.0354 H   0  0  0  0  0  0  0  0  0  0  0  0
   10.4871    5.4297   13.2584 H   0  0  0  0  0  0  0  0  0  0  0  0
    9.0979    3.2359   14.7034 H   0  0  0  0  0  0  0  0  0  0  0  0
    9.8715    4.6999   15.2526 H   0  0  0  0  0  0  0  0  0  0  0  0
    8.2785    4.7916   14.5067 H   0  0  0  0  0  0  0  0  0  0  0  0
   12.7096    4.5171   13.5380 H   0  0  0  0  0  0  0  0  0  0  0  0
   11.8360    3.4822   14.6816 H   0  0  0  0  0  0  0  0  0  0  0  0
   13.7769    2.6920   12.5294 H   0  0  0  0  0  0  0  0  0  0  0  0
   13.4588    1.9131   14.0864 H   0  0  0  0  0  0  0  0  0  0  0  0
   11.9857    0.4672   12.9984 H   0  0  0  0  0  0  0  0  0  0  0  0
   12.3313    1.3100   11.4791 H   0  0  0  0  0  0  0  0  0  0  0  0
   10.0788    1.9524   11.6702 H   0  0  0  0  0  0  0  0  0  0  0  0
   10.0961    1.7593   13.4290 H   0  0  0  0  0  0  0  0  0  0  0  0
    3.7359    5.0181   12.8229 H   0  0  0  0  0  0  0  0  0  0  0  0
  1  2  1  0
  2  3  1  0
  3  4  2  0
  4  5  1  0
  5  6  2  0
  6  7  1  0
  7  8  2  0
  8  9  1  0
  9 10  1  0
 10 11  1  0
 11 12  1  0
 12 13  2  0
 12 14  1  0
 14 15  1  0
 15 16  1  0
 16 17  1  0
 16 18  1  0
 18 19  1  0
 19 20  1  0
 20 21  1  0
 21 22  1  0
 11 23  2  0
  8  3  1  0
 22 18  1  0
 23  7  1  0
  1 24  1  0
  1 25  1  0
  1 26  1  0
  4 27  1  0
  5 28  1  0
  6 29  1  0
 10 30  1  0
 10 31  1  0
 14 32  1  0
 15 33  1  0
 15 34  1  0
 16 35  1  0
 17 36  1  0
 17 37  1  0
 17 38  1  0
 19 39  1  0
 19 40  1  0
 20 41  1  0
 20 42  1  0
 21 43  1  0
 21 44  1  0
 22 45  1  0
 22 46  1  0
 23 47  1  0
M  END
>  <Energy>  (407) 
75.531469221162411

>  <compound_id>  (407) 
27300

>  <target_id>  (407) 
1

>  <reference_id>  (407) 
124

>  <inspiration_ids>  (407) 
[91, 124]

>  <energy_score>  (407) 
-19.350923569180196

>  <distance_score>  (407) 
9.625963064512314

>  <path>  (407) 
/opt/xchem-fragalysis-2/maxwin/BulkDock/SCRATCH/511016/C27300-P124/C27300-P124.minimised.mol

>  <scratch_subdir>  (407) 
/opt/xchem-fragalysis-2/maxwin/BulkDock/SCRATCH/511016/C27300-P124

>  <fragmenstein_runtime>  (407) 
12.833854913711548

>  <fragmenstein_outcome>  (407) 
too moved

>  <fragmenstein_mode>  (407) 
expansion

>  <fragmenstein_error>  (407) 


$$$$
C27266-P124
     RDKit          3D

 46 48  0  0  0  0  0  0  0  0999 V2000
   -5.5943   -0.4876    9.2404 C   0  0  0  0  0  0  0  0  0  0  0  0
   -4.1731   -0.4002   10.0558 C   0  0  0  0  0  0  0  0  0  0  0  0
   -3.2220   -0.5111    8.9088 C   0  0  0  0  0  0  0  0  0  0  0  0
   -1.8631   -0.9560    9.2248 C   0  0  0  0  0  0  0  0  0  0  0  0
   -0.9978   -1.2363   10.8882 C   0  0  0  0  0  0  0  0  0  0  0  0
   -1.7270   -0.6459   12.1066 C   0  0  0  0  0  0  0  0  0  0  0  0
   -3.6386   -0.4646   11.8703 C   0  0  0  0  0  0  0  0  0  0  0  0
   -0.0570   -0.3912   12.9349 C   0  0  0  0  0  0  0  0  0  0  0  0
    1.2936   -0.1675   12.9412 C   0  0  0  0  0  0  0  0  0  0  0  0
    2.1212    1.4177   13.1997 C   0  0  0  0  0  0  0  0  0  0  0  0
    2.9424    1.6462   12.3520 O   0  0  0  0  0  0  0  0  0  0  0  0
    1.7352    2.1872   14.3799 N   0  0  0  0  0  0  0  0  0  0  0  0
    2.1786    3.5796   14.8644 C   0  0  0  0  0  0  0  0  0  0  0  0
    3.2495    3.8364   16.1393 C   0  0  0  0  0  0  0  0  0  0  0  0
    2.6684    4.8925   17.0827 C   0  0  0  0  0  0  0  0  0  0  0  0
    4.7060    4.1610   15.9586 N   0  0  0  0  0  0  0  0  0  0  0  0
    5.5769    4.4746   17.0842 C   0  0  0  0  0  0  0  0  0  0  0  0
    6.9336    4.5263   16.3963 C   0  0  0  0  0  0  0  0  0  0  0  0
    6.6176    5.2459   15.0933 C   0  0  0  0  0  0  0  0  0  0  0  0
    5.1064    5.0443   14.8754 C   0  0  0  0  0  0  0  0  0  0  0  0
    1.8181   -0.8438   11.6887 C   0  0  0  0  0  0  0  0  0  0  0  0
    0.6255   -1.1224   10.5760 O   0  0  0  0  0  0  0  0  0  0  0  0
   -6.5064   -0.4289    9.8490 H   0  0  0  0  0  0  0  0  0  0  0  0
   -5.6356    0.3410    8.5194 H   0  0  0  0  0  0  0  0  0  0  0  0
   -5.6277   -1.4055    8.6446 H   0  0  0  0  0  0  0  0  0  0  0  0
   -3.5657   -0.5876    7.8831 H   0  0  0  0  0  0  0  0  0  0  0  0
   -1.5142   -1.4395    8.3185 H   0  0  0  0  0  0  0  0  0  0  0  0
   -4.6013   -0.5417   12.2911 H   0  0  0  0  0  0  0  0  0  0  0  0
    0.2184   -1.3954   13.3528 H   0  0  0  0  0  0  0  0  0  0  0  0
    1.0660    1.6539   14.9168 H   0  0  0  0  0  0  0  0  0  0  0  0
    1.2359    4.0796   15.1130 H   0  0  0  0  0  0  0  0  0  0  0  0
    2.5848    4.0872   13.9829 H   0  0  0  0  0  0  0  0  0  0  0  0
    3.1544    2.9082   16.6945 H   0  0  0  0  0  0  0  0  0  0  0  0
    1.6106    4.6871   17.2833 H   0  0  0  0  0  0  0  0  0  0  0  0
    3.1644    4.8999   18.0588 H   0  0  0  0  0  0  0  0  0  0  0  0
    2.7302    5.8961   16.6484 H   0  0  0  0  0  0  0  0  0  0  0  0
    5.5840    3.7425   17.8910 H   0  0  0  0  0  0  0  0  0  0  0  0
    5.3406    5.4546   17.5170 H   0  0  0  0  0  0  0  0  0  0  0  0
    7.3029    3.5139   16.1923 H   0  0  0  0  0  0  0  0  0  0  0  0
    7.6851    5.0551   16.9895 H   0  0  0  0  0  0  0  0  0  0  0  0
    7.2225    4.8638   14.2667 H   0  0  0  0  0  0  0  0  0  0  0  0
    6.8333    6.3165   15.1919 H   0  0  0  0  0  0  0  0  0  0  0  0
    4.9067    4.6246   13.8859 H   0  0  0  0  0  0  0  0  0  0  0  0
    4.5933    6.0110   14.9399 H   0  0  0  0  0  0  0  0  0  0  0  0
    2.4855   -1.6315   11.4923 H   0  0  0  0  0  0  0  0  0  0  0  0
    2.6125   -0.1492   11.3179 H   0  0  0  0  0  0  0  0  0  0  0  0
  1  2  1  0
  2  3  2  0
  3  4  1  0
  4  5  2  0
  5  6  1  0
  6  7  2  0
  6  8  1  0
  8  9  2  0
  9 10  1  0
 10 11  2  0
 10 12  1  0
 12 13  1  0
 13 14  1  0
 14 15  1  0
 14 16  1  0
 16 17  1  0
 17 18  1  0
 18 19  1  0
 19 20  1  0
  9 21  1  0
 21 22  1  0
  7  2  1  0
 20 16  1  0
 22  5  1  0
  1 23  1  0
  1 24  1  0
  1 25  1  0
  3 26  1  0
  4 27  1  0
  7 28  1  0
  8 29  1  0
 12 30  1  0
 13 31  1  0
 13 32  1  0
 14 33  1  0
 15 34  1  0
 15 35  1  0
 15 36  1  0
 17 37  1  0
 17 38  1  0
 18 39  1  0
 18 40  1  0
 19 41  1  0
 19 42  1  0
 20 43  1  0
 20 44  1  0
 21 45  1  0
 21 46  1  0
M  END
>  <Energy>  (408) 
602.93755482211554

>  <compound_id>  (408) 
27266

>  <target_id>  (408) 
1

>  <reference_id>  (408) 
124

>  <inspiration_ids>  (408) 
[91, 124]

>  <energy_score>  (408) 
543.3758946797951

>  <distance_score>  (408) 
9.721926119781019

>  <path>  (408) 
/opt/xchem-fragalysis-2/maxwin/BulkDock/SCRATCH/511016/C27266-P124/C27266-P124.minimised.mol

>  <scratch_subdir>  (408) 
/opt/xchem-fragalysis-2/maxwin/BulkDock/SCRATCH/511016/C27266-P124

>  <fragmenstein_runtime>  (408) 
9.119316101074219

>  <fragmenstein_outcome>  (408) 
too moved

>  <fragmenstein_mode>  (408) 
expansion

>  <fragmenstein_error>  (408) 


$$$$
C27267-P124
     RDKit          3D

 46 48  0  0  0  0  0  0  0  0999 V2000
  -10.0385    0.3744    8.3059 C   0  0  0  0  0  0  0  0  0  0  0  0
   -8.6057   -0.0090    8.5025 C   0  0  0  0  0  0  0  0  0  0  0  0
   -7.9023   -0.5342    7.4286 C   0  0  0  0  0  0  0  0  0  0  0  0
   -6.5954   -0.8897    7.6251 C   0  0  0  0  0  0  0  0  0  0  0  0
   -6.0360   -0.7693    8.9037 C   0  0  0  0  0  0  0  0  0  0  0  0
   -6.7220   -0.3698   10.1047 C   0  0  0  0  0  0  0  0  0  0  0  0
   -8.0126    0.0978    9.7943 C   0  0  0  0  0  0  0  0  0  0  0  0
   -5.7920   -0.3881   11.7103 C   0  0  0  0  0  0  0  0  0  0  0  0
   -4.3058   -0.2819   11.6020 C   0  0  0  0  0  0  0  0  0  0  0  0
   -2.7253    0.5601   12.5771 C   0  0  0  0  0  0  0  0  0  0  0  0
   -1.3523   -0.2999   12.2702 O   0  0  0  0  0  0  0  0  0  0  0  0
   -2.3153    1.4767   13.1742 N   0  0  0  0  0  0  0  0  0  0  0  0
   -0.8463    2.1495   13.8959 C   0  0  0  0  0  0  0  0  0  0  0  0
   -0.6995    2.6026   15.3827 C   0  0  0  0  0  0  0  0  0  0  0  0
    0.4033    3.6626   15.7796 C   0  0  0  0  0  0  0  0  0  0  0  0
    1.8493    3.4724   15.5624 N   0  0  0  0  0  0  0  0  0  0  0  0
    2.6367    4.1584   16.6141 C   0  0  0  0  0  0  0  0  0  0  0  0
    3.9677    4.5696   16.0102 C   0  0  0  0  0  0  0  0  0  0  0  0
    3.6182    4.8275   14.5585 C   0  0  0  0  0  0  0  0  0  0  0  0
    2.3247    4.0443   14.2855 C   0  0  0  0  0  0  0  0  0  0  0  0
   -3.9961   -0.2290    9.6934 C   0  0  0  0  0  0  0  0  0  0  0  0
   -4.7250   -1.1395    8.9046 O   0  0  0  0  0  0  0  0  0  0  0  0
  -10.2380    0.6540    7.2659 H   0  0  0  0  0  0  0  0  0  0  0  0
  -10.6903   -0.4627    8.5752 H   0  0  0  0  0  0  0  0  0  0  0  0
  -10.2998    1.2393    8.9249 H   0  0  0  0  0  0  0  0  0  0  0  0
   -8.3612   -0.6484    6.4516 H   0  0  0  0  0  0  0  0  0  0  0  0
   -5.9986   -1.2715    6.8031 H   0  0  0  0  0  0  0  0  0  0  0  0
   -8.6434    0.6063   10.4989 H   0  0  0  0  0  0  0  0  0  0  0  0
   -6.3016   -0.3240   12.6493 H   0  0  0  0  0  0  0  0  0  0  0  0
   -2.3874    2.3095   13.7198 H   0  0  0  0  0  0  0  0  0  0  0  0
   -0.0315    1.4461   13.8351 H   0  0  0  0  0  0  0  0  0  0  0  0
   -0.6417    3.0111   13.2445 H   0  0  0  0  0  0  0  0  0  0  0  0
   -1.6664    3.0080   15.7056 H   0  0  0  0  0  0  0  0  0  0  0  0
   -0.5113    1.7269   16.0094 H   0  0  0  0  0  0  0  0  0  0  0  0
    0.2524    3.7599   16.8657 H   0  0  0  0  0  0  0  0  0  0  0  0
    0.0849    4.6344   15.3776 H   0  0  0  0  0  0  0  0  0  0  0  0
    2.7626    3.5191   17.4925 H   0  0  0  0  0  0  0  0  0  0  0  0
    2.1241    5.0734   16.9427 H   0  0  0  0  0  0  0  0  0  0  0  0
    4.3672    5.4694   16.4901 H   0  0  0  0  0  0  0  0  0  0  0  0
    4.7256    3.7938   16.1221 H   0  0  0  0  0  0  0  0  0  0  0  0
    4.4304    4.5608   13.8764 H   0  0  0  0  0  0  0  0  0  0  0  0
    3.4230    5.8985   14.4210 H   0  0  0  0  0  0  0  0  0  0  0  0
    2.4764    3.2473   13.5507 H   0  0  0  0  0  0  0  0  0  0  0  0
    1.5966    4.7311   13.8357 H   0  0  0  0  0  0  0  0  0  0  0  0
   -2.9508   -0.3152    9.3418 H   0  0  0  0  0  0  0  0  0  0  0  0
   -4.1251    0.7396    9.2168 H   0  0  0  0  0  0  0  0  0  0  0  0
  1  2  1  0
  2  3  2  0
  3  4  1  0
  4  5  2  0
  5  6  1  0
  6  7  2  0
  6  8  1  0
  8  9  2  0
  9 10  1  0
 10 11  2  0
 10 12  1  0
 12 13  1  0
 13 14  1  0
 14 15  1  0
 15 16  1  0
 16 17  1  0
 17 18  1  0
 18 19  1  0
 19 20  1  0
  9 21  1  0
 21 22  1  0
  7  2  1  0
 20 16  1  0
 22  5  1  0
  1 23  1  0
  1 24  1  0
  1 25  1  0
  3 26  1  0
  4 27  1  0
  7 28  1  0
  8 29  1  0
 12 30  1  0
 13 31  1  0
 13 32  1  0
 14 33  1  0
 14 34  1  0
 15 35  1  0
 15 36  1  0
 17 37  1  0
 17 38  1  0
 18 39  1  0
 18 40  1  0
 19 41  1  0
 19 42  1  0
 20 43  1  0
 20 44  1  0
 21 45  1  0
 21 46  1  0
M  END
>  <Energy>  (409) 
443.03090408329274

>  <compound_id>  (409) 
27267

>  <target_id>  (409) 
1

>  <reference_id>  (409) 
124

>  <inspiration_ids>  (409) 
[91, 124]

>  <energy_score>  (409) 
404.84003022388674

>  <distance_score>  (409) 
10.331390675724412

>  <path>  (409) 
/opt/xchem-fragalysis-2/maxwin/BulkDock/SCRATCH/511016/C27267-P124/C27267-P124.minimised.mol

>  <scratch_subdir>  (409) 
/opt/xchem-fragalysis-2/maxwin/BulkDock/SCRATCH/511016/C27267-P124

>  <fragmenstein_runtime>  (409) 
12.818998336791992

>  <fragmenstein_outcome>  (409) 
too moved

>  <fragmenstein_mode>  (409) 
expansion

>  <fragmenstein_error>  (409) 


$$$$
C27301-P124
     RDKit          3D

 47 49  0  0  0  0  0  0  0  0999 V2000
   -5.4990   -3.4555    6.6212 C   0  0  0  0  0  0  0  0  0  0  0  0
   -5.3025   -2.2256    7.2575 O   0  0  0  0  0  0  0  0  0  0  0  0
   -4.0930   -1.7750    7.6968 C   0  0  0  0  0  0  0  0  0  0  0  0
   -4.2692   -0.5051    8.1047 C   0  0  0  0  0  0  0  0  0  0  0  0
   -3.1492    0.0536    8.5964 C   0  0  0  0  0  0  0  0  0  0  0  0
   -1.8987   -0.6344    8.5857 C   0  0  0  0  0  0  0  0  0  0  0  0
   -1.3524   -1.8056    8.2219 C   0  0  0  0  0  0  0  0  0  0  0  0
   -2.7567   -2.4173    7.8858 C   0  0  0  0  0  0  0  0  0  0  0  0
    0.6111   -2.2891    8.9376 C   0  0  0  0  0  0  0  0  0  0  0  0
    1.4741   -1.8151   10.1036 C   0  0  0  0  0  0  0  0  0  0  0  0
    3.1442   -2.4652   11.1128 C   0  0  0  0  0  0  0  0  0  0  0  0
    3.2466   -3.6568   11.3788 O   0  0  0  0  0  0  0  0  0  0  0  0
    4.4793   -1.1245   11.4322 N   0  0  0  0  0  0  0  0  0  0  0  0
    6.2670   -1.2838   12.1251 C   0  0  0  0  0  0  0  0  0  0  0  0
    7.5920   -0.2513   12.7268 C   0  0  0  0  0  0  0  0  0  0  0  0
    9.2143    0.4329   13.4907 C   0  0  0  0  0  0  0  0  0  0  0  0
   10.6423    0.0880   13.1704 N   0  0  0  0  0  0  0  0  0  0  0  0
   11.5338    1.2050   12.7996 C   0  0  0  0  0  0  0  0  0  0  0  0
   12.9468    0.6410   12.8300 C   0  0  0  0  0  0  0  0  0  0  0  0
   12.9103   -0.4092   13.9164 C   0  0  0  0  0  0  0  0  0  0  0  0
   11.4673   -0.9060   13.9047 C   0  0  0  0  0  0  0  0  0  0  0  0
    0.3055   -1.0069   10.5544 C   0  0  0  0  0  0  0  0  0  0  0  0
   -1.3950   -1.0411    9.7450 O   0  0  0  0  0  0  0  0  0  0  0  0
   -4.5615   -3.9690    6.4817 H   0  0  0  0  0  0  0  0  0  0  0  0
   -6.2141   -4.0468    7.1916 H   0  0  0  0  0  0  0  0  0  0  0  0
   -5.9918   -3.3029    5.6586 H   0  0  0  0  0  0  0  0  0  0  0  0
   -5.2158    0.0131    8.0530 H   0  0  0  0  0  0  0  0  0  0  0  0
   -3.1849    1.0813    8.9044 H   0  0  0  0  0  0  0  0  0  0  0  0
   -2.9030   -3.4851    7.7256 H   0  0  0  0  0  0  0  0  0  0  0  0
    1.2835   -2.8835    8.2667 H   0  0  0  0  0  0  0  0  0  0  0  0
    4.1579   -0.2110   11.0643 H   0  0  0  0  0  0  0  0  0  0  0  0
    6.8649   -1.5613   11.2544 H   0  0  0  0  0  0  0  0  0  0  0  0
    6.2563   -2.1546   12.7662 H   0  0  0  0  0  0  0  0  0  0  0  0
    7.6606   -1.0330   13.4963 H   0  0  0  0  0  0  0  0  0  0  0  0
    8.0019   -0.2182   11.7010 H   0  0  0  0  0  0  0  0  0  0  0  0
    9.0272    0.5568   14.5438 H   0  0  0  0  0  0  0  0  0  0  0  0
    9.2886    1.4076   13.0335 H   0  0  0  0  0  0  0  0  0  0  0  0
   11.2938    1.5753   11.7967 H   0  0  0  0  0  0  0  0  0  0  0  0
   11.4525    2.0525   13.4870 H   0  0  0  0  0  0  0  0  0  0  0  0
   13.6965    1.4132   13.0275 H   0  0  0  0  0  0  0  0  0  0  0  0
   13.1936    0.1753   11.8694 H   0  0  0  0  0  0  0  0  0  0  0  0
   13.1755    0.0371   14.8786 H   0  0  0  0  0  0  0  0  0  0  0  0
   13.6255   -1.2151   13.7219 H   0  0  0  0  0  0  0  0  0  0  0  0
   11.0968   -1.1565   14.8981 H   0  0  0  0  0  0  0  0  0  0  0  0
   11.4907   -1.8607   13.3675 H   0  0  0  0  0  0  0  0  0  0  0  0
   -0.4044   -0.8446   11.4253 H   0  0  0  0  0  0  0  0  0  0  0  0
    0.7171   -0.8258   11.5964 H   0  0  0  0  0  0  0  0  0  0  0  0
  1  2  1  0
  2  3  1  0
  3  4  2  0
  4  5  1  0
  5  6  2  0
  6  7  1  0
  7  8  2  0
  7  9  1  0
  9 10  2  0
 10 11  1  0
 11 12  2  0
 11 13  1  0
 13 14  1  0
 14 15  1  0
 15 16  1  0
 16 17  1  0
 17 18  1  0
 18 19  1  0
 19 20  1  0
 20 21  1  0
 10 22  1  0
 22 23  1  0
  8  3  1  0
 21 17  1  0
 23  6  1  0
  1 24  1  0
  1 25  1  0
  1 26  1  0
  4 27  1  0
  5 28  1  0
  8 29  1  0
  9 30  1  0
 13 31  1  0
 14 32  1  0
 14 33  1  0
 15 34  1  0
 15 35  1  0
 16 36  1  0
 16 37  1  0
 18 38  1  0
 18 39  1  0
 19 40  1  0
 19 41  1  0
 20 42  1  0
 20 43  1  0
 21 44  1  0
 21 45  1  0
 22 46  1  0
 22 47  1  0
M  END
>  <Energy>  (410) 
921.63261209676966

>  <compound_id>  (410) 
27301

>  <target_id>  (410) 
1

>  <reference_id>  (410) 
124

>  <inspiration_ids>  (410) 
[91, 124]

>  <energy_score>  (410) 
891.2076167223861

>  <distance_score>  (410) 
6.030876354477546

>  <path>  (410) 
/opt/xchem-fragalysis-2/maxwin/BulkDock/SCRATCH/511016/C27301-P124/C27301-P124.minimised.mol

>  <scratch_subdir>  (410) 
/opt/xchem-fragalysis-2/maxwin/BulkDock/SCRATCH/511016/C27301-P124

>  <fragmenstein_runtime>  (410) 
10.862854719161987

>  <fragmenstein_outcome>  (410) 
too moved

>  <fragmenstein_mode>  (410) 
expansion

>  <fragmenstein_error>  (410) 


$$$$
C27302-P124
     RDKit          3D

 50 52  0  0  0  0  0  0  0  0999 V2000
   -0.6345    6.9732    8.0497 C   0  0  0  0  0  0  0  0  0  0  0  0
   -0.9230    5.6630    8.7631 C   0  0  0  0  0  0  0  0  0  0  0  0
    0.1751    5.2673    9.5820 O   0  0  0  0  0  0  0  0  0  0  0  0
    1.2496    4.6289    9.0262 C   0  0  0  0  0  0  0  0  0  0  0  0
    1.3208    4.2153    7.6971 C   0  0  0  0  0  0  0  0  0  0  0  0
    2.4597    3.5584    7.2323 C   0  0  0  0  0  0  0  0  0  0  0  0
    3.5414    3.3251    8.0777 C   0  0  0  0  0  0  0  0  0  0  0  0
    3.5289    3.8132    9.3874 C   0  0  0  0  0  0  0  0  0  0  0  0
    2.3688    4.4300    9.8657 C   0  0  0  0  0  0  0  0  0  0  0  0
    2.2902    4.8622   11.1616 O   0  0  0  0  0  0  0  0  0  0  0  0
    3.5291    5.1607   11.8411 C   0  0  0  0  0  0  0  0  0  0  0  0
    4.8387    4.5681   11.3026 C   0  0  0  0  0  0  0  0  0  0  0  0
    6.1022    5.0123   12.1422 C   0  0  0  0  0  0  0  0  0  0  0  0
    5.8508    5.6693   13.1125 O   0  0  0  0  0  0  0  0  0  0  0  0
    7.3758    4.6394   11.5595 N   0  0  0  0  0  0  0  0  0  0  0  0
    8.7607    5.0317   11.9161 C   0  0  0  0  0  0  0  0  0  0  0  0
    9.7030    4.5319   13.1242 C   0  0  0  0  0  0  0  0  0  0  0  0
    9.0609    4.2764   14.4923 C   0  0  0  0  0  0  0  0  0  0  0  0
   10.8302    3.6359   12.7473 N   0  0  0  0  0  0  0  0  0  0  0  0
   11.9677    3.6795   13.6848 C   0  0  0  0  0  0  0  0  0  0  0  0
   12.8636    2.5283   13.2459 C   0  0  0  0  0  0  0  0  0  0  0  0
   11.9479    1.5901   12.4744 C   0  0  0  0  0  0  0  0  0  0  0  0
   10.5605    2.2209   12.5554 C   0  0  0  0  0  0  0  0  0  0  0  0
    4.7781    3.8350   10.1742 C   0  0  0  0  0  0  0  0  0  0  0  0
    0.1987    6.8749    7.3479 H   0  0  0  0  0  0  0  0  0  0  0  0
   -0.3526    7.7476    8.7708 H   0  0  0  0  0  0  0  0  0  0  0  0
   -1.5148    7.3121    7.4959 H   0  0  0  0  0  0  0  0  0  0  0  0
   -1.7691    5.8274    9.4402 H   0  0  0  0  0  0  0  0  0  0  0  0
   -1.2396    4.8712    8.0764 H   0  0  0  0  0  0  0  0  0  0  0  0
    0.5163    4.3894    6.9896 H   0  0  0  0  0  0  0  0  0  0  0  0
    2.5253    3.2581    6.1889 H   0  0  0  0  0  0  0  0  0  0  0  0
    4.4241    2.8336    7.6716 H   0  0  0  0  0  0  0  0  0  0  0  0
    3.3899    4.8220   12.8744 H   0  0  0  0  0  0  0  0  0  0  0  0
    3.6130    6.2541   11.8596 H   0  0  0  0  0  0  0  0  0  0  0  0
    7.2104    4.1482   10.6931 H   0  0  0  0  0  0  0  0  0  0  0  0
    9.3316    4.9076   10.9869 H   0  0  0  0  0  0  0  0  0  0  0  0
    8.6731    6.1186   12.0562 H   0  0  0  0  0  0  0  0  0  0  0  0
   10.2460    5.4764   13.2988 H   0  0  0  0  0  0  0  0  0  0  0  0
    8.0309    4.6410   14.5208 H   0  0  0  0  0  0  0  0  0  0  0  0
    9.0669    3.2278   14.7881 H   0  0  0  0  0  0  0  0  0  0  0  0
    9.6140    4.8100   15.2749 H   0  0  0  0  0  0  0  0  0  0  0  0
   11.6511    3.5314   14.7222 H   0  0  0  0  0  0  0  0  0  0  0  0
   12.5006    4.6342   13.6254 H   0  0  0  0  0  0  0  0  0  0  0  0
   13.6651    2.8874   12.5900 H   0  0  0  0  0  0  0  0  0  0  0  0
   13.3307    2.0320   14.1023 H   0  0  0  0  0  0  0  0  0  0  0  0
   11.9573    0.5804   12.8960 H   0  0  0  0  0  0  0  0  0  0  0  0
   12.2801    1.5232   11.4318 H   0  0  0  0  0  0  0  0  0  0  0  0
   10.0245    1.7784   13.3968 H   0  0  0  0  0  0  0  0  0  0  0  0
    9.9910    2.0312   11.6415 H   0  0  0  0  0  0  0  0  0  0  0  0
    5.6362    3.3660    9.7133 H   0  0  0  0  0  0  0  0  0  0  0  0
  1  2  1  0
  2  3  1  0
  3  4  1  0
  4  5  2  0
  5  6  1  0
  6  7  2  0
  7  8  1  0
  8  9  2  0
  9 10  1  0
 10 11  1  0
 11 12  1  0
 12 13  1  0
 13 14  2  0
 13 15  1  0
 15 16  1  0
 16 17  1  0
 17 18  1  0
 17 19  1  0
 19 20  1  0
 20 21  1  0
 21 22  1  0
 22 23  1  0
 12 24  2  0
  9  4  1  0
 23 19  1  0
 24  8  1  0
  1 25  1  0
  1 26  1  0
  1 27  1  0
  2 28  1  0
  2 29  1  0
  5 30  1  0
  6 31  1  0
  7 32  1  0
 11 33  1  0
 11 34  1  0
 15 35  1  0
 16 36  1  0
 16 37  1  0
 17 38  1  0
 18 39  1  0
 18 40  1  0
 18 41  1  0
 20 42  1  0
 20 43  1  0
 21 44  1  0
 21 45  1  0
 22 46  1  0
 22 47  1  0
 23 48  1  0
 23 49  1  0
 24 50  1  0
M  END
>  <Energy>  (411) 
77.143689939092624

>  <compound_id>  (411) 
27302

>  <target_id>  (411) 
1

>  <reference_id>  (411) 
124

>  <inspiration_ids>  (411) 
[91, 124]

>  <energy_score>  (411) 
8.713928687521332

>  <distance_score>  (411) 
9.402641500170567

>  <path>  (411) 
/opt/xchem-fragalysis-2/maxwin/BulkDock/SCRATCH/511016/C27302-P124/C27302-P124.minimised.mol

>  <scratch_subdir>  (411) 
/opt/xchem-fragalysis-2/maxwin/BulkDock/SCRATCH/511016/C27302-P124

>  <fragmenstein_runtime>  (411) 
16.61746120452881

>  <fragmenstein_outcome>  (411) 
too moved

>  <fragmenstein_mode>  (411) 
expansion

>  <fragmenstein_error>  (411) 


$$$$
C19470-P56
     RDKit          3D

 47 49  0  0  0  0  0  0  0  0999 V2000
    0.3716  -10.2125   27.9279 C   0  0  0  0  0  0  0  0  0  0  0  0
   -0.7535   -9.3158   27.8713 N   0  0  0  0  0  0  0  0  0  0  0  0
   -0.3124   -7.9606   28.1503 C   0  0  0  0  0  0  0  0  0  0  0  0
    0.0536   -7.0935   27.4097 O   0  0  0  0  0  0  0  0  0  0  0  0
   -0.4178   -7.4980   29.5903 C   0  0  0  0  0  0  0  0  0  0  0  0
   -0.7441   -8.2984   30.6793 C   0  0  0  0  0  0  0  0  0  0  0  0
   -0.9108   -7.7553   31.9576 C   0  0  0  0  0  0  0  0  0  0  0  0
   -0.7276   -6.3981   32.1218 C   0  0  0  0  0  0  0  0  0  0  0  0
   -0.4225   -5.5732   31.1046 N   0  0  0  0  0  0  0  0  0  0  0  0
   -0.2536   -6.1442   29.8784 C   0  0  0  0  0  0  0  0  0  0  0  0
   -1.0704  -10.1901   26.2194 C   0  0  0  0  0  0  0  0  0  0  0  0
   -0.5003  -11.7218   25.2170 C   0  0  0  0  0  0  0  0  0  0  0  0
   -1.0101  -12.9045   24.4441 N   0  0  0  0  0  0  0  0  0  0  0  0
   -0.4515  -13.5955   23.2309 C   0  0  0  0  0  0  0  0  0  0  0  0
    0.4950  -13.3173   22.5389 O   0  0  0  0  0  0  0  0  0  0  0  0
   -1.1447  -14.9632   22.8598 C   0  0  0  0  0  0  0  0  0  0  0  0
   -1.0256  -15.5832   21.4079 C   0  0  0  0  0  0  0  0  0  0  0  0
   -1.0680  -14.8569   20.2217 C   0  0  0  0  0  0  0  0  0  0  0  0
   -1.1274  -15.5005   18.9627 C   0  0  0  0  0  0  0  0  0  0  0  0
   -1.2060  -16.8777   18.9012 C   0  0  0  0  0  0  0  0  0  0  0  0
   -1.1075  -17.6357   20.0004 N   0  0  0  0  0  0  0  0  0  0  0  0
   -0.9607  -16.9694   21.1880 C   0  0  0  0  0  0  0  0  0  0  0  0
   -1.5671   -9.1558   25.0224 C   0  0  0  0  0  0  0  0  0  0  0  0
   -0.9716   -7.8198   24.5631 C   0  0  0  0  0  0  0  0  0  0  0  0
   -2.3165   -7.8650   25.1579 C   0  0  0  0  0  0  0  0  0  0  0  0
    1.3411   -9.6842   27.8743 H   0  0  0  0  0  0  0  0  0  0  0  0
    0.4737  -10.3801   29.0060 H   0  0  0  0  0  0  0  0  0  0  0  0
    0.4166  -11.1745   27.4562 H   0  0  0  0  0  0  0  0  0  0  0  0
   -0.8734   -9.3677   30.5410 H   0  0  0  0  0  0  0  0  0  0  0  0
   -1.1582   -8.3860   32.8038 H   0  0  0  0  0  0  0  0  0  0  0  0
   -0.8253   -5.9236   33.0944 H   0  0  0  0  0  0  0  0  0  0  0  0
   -0.0093   -5.4288   29.0956 H   0  0  0  0  0  0  0  0  0  0  0  0
   -2.0625  -10.5276   26.4152 H   0  0  0  0  0  0  0  0  0  0  0  0
   -0.1966  -11.2489   24.2710 H   0  0  0  0  0  0  0  0  0  0  0  0
    0.3823  -12.1423   25.7183 H   0  0  0  0  0  0  0  0  0  0  0  0
   -1.7662  -13.4607   24.8257 H   0  0  0  0  0  0  0  0  0  0  0  0
   -2.1894  -14.9274   23.1627 H   0  0  0  0  0  0  0  0  0  0  0  0
   -0.6627  -15.6869   23.5326 H   0  0  0  0  0  0  0  0  0  0  0  0
   -1.0623  -13.7678   20.2560 H   0  0  0  0  0  0  0  0  0  0  0  0
   -1.1528  -14.9084   18.0533 H   0  0  0  0  0  0  0  0  0  0  0  0
   -1.3070  -17.4057   17.9597 H   0  0  0  0  0  0  0  0  0  0  0  0
   -0.7484  -17.6439   22.0133 H   0  0  0  0  0  0  0  0  0  0  0  0
   -1.9038   -9.7757   24.1877 H   0  0  0  0  0  0  0  0  0  0  0  0
   -0.3016   -7.2141   25.1394 H   0  0  0  0  0  0  0  0  0  0  0  0
   -0.8852   -7.6536   23.4947 H   0  0  0  0  0  0  0  0  0  0  0  0
   -3.1407   -7.7364   24.4677 H   0  0  0  0  0  0  0  0  0  0  0  0
   -2.3810   -7.3251   26.0870 H   0  0  0  0  0  0  0  0  0  0  0  0
  1  2  1  0
  2  3  1  0
  3  4  2  0
  3  5  1  0
  5  6  2  0
  6  7  1  0
  7  8  2  0
  8  9  1  0
  9 10  2  0
  2 11  1  0
 11 12  1  0
 12 13  1  0
 13 14  1  0
 14 15  2  0
 14 16  1  0
 16 17  1  0
 17 18  2  0
 18 19  1  0
 19 20  2  0
 20 21  1  0
 21 22  2  0
 11 23  1  0
 23 24  1  0
 24 25  1  0
 10  5  1  0
 22 17  1  0
 25 23  1  0
  1 26  1  0
  1 27  1  0
  1 28  1  0
  6 29  1  0
  7 30  1  0
  8 31  1  0
 10 32  1  0
 11 33  1  0
 12 34  1  0
 12 35  1  0
 13 36  1  0
 16 37  1  0
 16 38  1  0
 18 39  1  0
 19 40  1  0
 20 41  1  0
 22 42  1  0
 23 43  1  0
 24 44  1  0
 24 45  1  0
 25 46  1  0
 25 47  1  0
M  END
>  <Energy>  (412) 
310.15130113285079

>  <compound_id>  (412) 
19470

>  <target_id>  (412) 
1

>  <reference_id>  (412) 
56

>  <inspiration_ids>  (412) 
[56, 48]

>  <energy_score>  (412) 
205.47234483718887

>  <distance_score>  (412) 
13.508858025570335

>  <path>  (412) 
/opt/xchem-fragalysis-2/maxwin/BulkDock/SCRATCH/511016/C19470-P56/C19470-P56.minimised.mol

>  <scratch_subdir>  (412) 
/opt/xchem-fragalysis-2/maxwin/BulkDock/SCRATCH/511016/C19470-P56

>  <fragmenstein_runtime>  (412) 
17.651193380355835

>  <fragmenstein_outcome>  (412) 
too moved

>  <fragmenstein_mode>  (412) 
expansion

>  <fragmenstein_error>  (412) 


$$$$
C19470-P48
     RDKit          3D

 47 49  0  0  0  0  0  0  0  0999 V2000
   -0.0795  -17.1349   23.7057 C   0  0  0  0  0  0  0  0  0  0  0  0
   -0.4781  -15.6913   23.7960 N   0  0  0  0  0  0  0  0  0  0  0  0
   -0.2853  -15.2141   25.1310 C   0  0  0  0  0  0  0  0  0  0  0  0
    0.6693  -14.6925   25.6446 O   0  0  0  0  0  0  0  0  0  0  0  0
   -1.4663  -15.2605   26.0230 C   0  0  0  0  0  0  0  0  0  0  0  0
   -2.3978  -14.2194   25.9197 C   0  0  0  0  0  0  0  0  0  0  0  0
   -3.3117  -13.9936   26.9489 C   0  0  0  0  0  0  0  0  0  0  0  0
   -3.2556  -14.8153   28.0606 C   0  0  0  0  0  0  0  0  0  0  0  0
   -2.3718  -15.8318   28.2011 N   0  0  0  0  0  0  0  0  0  0  0  0
   -1.4748  -16.0047   27.1914 C   0  0  0  0  0  0  0  0  0  0  0  0
    0.4221  -15.5894   22.5574 C   0  0  0  0  0  0  0  0  0  0  0  0
    0.3377  -16.4358   21.1621 C   0  0  0  0  0  0  0  0  0  0  0  0
   -0.8763  -16.8819   20.4394 N   0  0  0  0  0  0  0  0  0  0  0  0
   -1.1679  -18.1460   19.7283 C   0  0  0  0  0  0  0  0  0  0  0  0
   -0.5224  -19.1529   19.6308 O   0  0  0  0  0  0  0  0  0  0  0  0
   -2.5041  -18.0561   18.9058 C   0  0  0  0  0  0  0  0  0  0  0  0
   -2.9032  -19.2457   17.9951 C   0  0  0  0  0  0  0  0  0  0  0  0
   -3.5227  -20.4045   18.4851 C   0  0  0  0  0  0  0  0  0  0  0  0
   -3.8831  -21.4478   17.6178 C   0  0  0  0  0  0  0  0  0  0  0  0
   -3.6332  -21.3048   16.2649 C   0  0  0  0  0  0  0  0  0  0  0  0
   -3.0691  -20.2003   15.7346 N   0  0  0  0  0  0  0  0  0  0  0  0
   -2.7118  -19.2153   16.6084 C   0  0  0  0  0  0  0  0  0  0  0  0
    0.2415  -14.0673   22.2030 C   0  0  0  0  0  0  0  0  0  0  0  0
    1.4190  -13.1765   21.8561 C   0  0  0  0  0  0  0  0  0  0  0  0
    0.6868  -12.9357   23.1355 C   0  0  0  0  0  0  0  0  0  0  0  0
   -0.5208  -17.6148   24.5931 H   0  0  0  0  0  0  0  0  0  0  0  0
   -0.5193  -17.7026   22.8832 H   0  0  0  0  0  0  0  0  0  0  0  0
    0.9945  -17.3297   23.8592 H   0  0  0  0  0  0  0  0  0  0  0  0
   -2.3589  -13.5300   25.0813 H   0  0  0  0  0  0  0  0  0  0  0  0
   -4.0211  -13.1744   26.8983 H   0  0  0  0  0  0  0  0  0  0  0  0
   -3.9352  -14.6698   28.8942 H   0  0  0  0  0  0  0  0  0  0  0  0
   -0.7096  -16.7501   27.3839 H   0  0  0  0  0  0  0  0  0  0  0  0
    1.4747  -15.6272   22.8925 H   0  0  0  0  0  0  0  0  0  0  0  0
    0.9356  -17.3471   21.2981 H   0  0  0  0  0  0  0  0  0  0  0  0
    0.8922  -15.8558   20.4126 H   0  0  0  0  0  0  0  0  0  0  0  0
   -1.6098  -16.2111   20.2395 H   0  0  0  0  0  0  0  0  0  0  0  0
   -3.3274  -17.8634   19.5991 H   0  0  0  0  0  0  0  0  0  0  0  0
   -2.4099  -17.1730   18.2633 H   0  0  0  0  0  0  0  0  0  0  0  0
   -3.7210  -20.5116   19.5499 H   0  0  0  0  0  0  0  0  0  0  0  0
   -4.3444  -22.3519   17.9984 H   0  0  0  0  0  0  0  0  0  0  0  0
   -3.8951  -22.0851   15.5578 H   0  0  0  0  0  0  0  0  0  0  0  0
   -2.2477  -18.3551   16.1316 H   0  0  0  0  0  0  0  0  0  0  0  0
   -0.6873  -13.9015   21.6665 H   0  0  0  0  0  0  0  0  0  0  0  0
    1.2914  -12.4523   21.0591 H   0  0  0  0  0  0  0  0  0  0  0  0
    2.4215  -13.5842   21.9221 H   0  0  0  0  0  0  0  0  0  0  0  0
    0.0426  -12.0663   23.2100 H   0  0  0  0  0  0  0  0  0  0  0  0
    1.2502  -13.1336   24.0366 H   0  0  0  0  0  0  0  0  0  0  0  0
  1  2  1  0
  2  3  1  0
  3  4  2  0
  3  5  1  0
  5  6  2  0
  6  7  1  0
  7  8  2  0
  8  9  1  0
  9 10  2  0
  2 11  1  0
 11 12  1  0
 12 13  1  0
 13 14  1  0
 14 15  2  0
 14 16  1  0
 16 17  1  0
 17 18  2  0
 18 19  1  0
 19 20  2  0
 20 21  1  0
 21 22  2  0
 11 23  1  0
 23 24  1  0
 24 25  1  0
 10  5  1  0
 22 17  1  0
 25 23  1  0
  1 26  1  0
  1 27  1  0
  1 28  1  0
  6 29  1  0
  7 30  1  0
  8 31  1  0
 10 32  1  0
 11 33  1  0
 12 34  1  0
 12 35  1  0
 13 36  1  0
 16 37  1  0
 16 38  1  0
 18 39  1  0
 19 40  1  0
 20 41  1  0
 22 42  1  0
 23 43  1  0
 24 44  1  0
 24 45  1  0
 25 46  1  0
 25 47  1  0
M  END
>  <Energy>  (413) 
181.5401487247218

>  <compound_id>  (413) 
19470

>  <target_id>  (413) 
1

>  <reference_id>  (413) 
48

>  <inspiration_ids>  (413) 
[56, 48]

>  <energy_score>  (413) 
76.8611924290592

>  <distance_score>  (413) 
15.041339284495256

>  <path>  (413) 
/opt/xchem-fragalysis-2/maxwin/BulkDock/SCRATCH/511016/C19470-P48/C19470-P48.minimised.mol

>  <scratch_subdir>  (413) 
/opt/xchem-fragalysis-2/maxwin/BulkDock/SCRATCH/511016/C19470-P48

>  <fragmenstein_runtime>  (413) 
18.13877773284912

>  <fragmenstein_outcome>  (413) 
too moved

>  <fragmenstein_mode>  (413) 
expansion

>  <fragmenstein_error>  (413) 


$$$$
C19488-P56
     RDKit          3D

 38 39  0  0  0  0  0  0  0  0999 V2000
   -2.3526   -8.7774   18.9317 C   0  0  0  0  0  0  0  0  0  0  0  0
   -3.2370   -7.6086   18.9132 N   0  0  0  0  0  0  0  0  0  0  0  0
   -2.5778   -6.4753   19.7399 C   0  0  0  0  0  0  0  0  0  0  0  0
   -2.1823   -6.6084   21.3460 C   0  0  0  0  0  0  0  0  0  0  0  0
   -1.5852   -5.3492   21.9447 N   0  0  0  0  0  0  0  0  0  0  0  0
   -1.1456   -5.0245   23.4001 C   0  0  0  0  0  0  0  0  0  0  0  0
   -1.1051   -5.7353   24.3780 O   0  0  0  0  0  0  0  0  0  0  0  0
   -0.5944   -3.1652   23.7645 C   0  0  0  0  0  0  0  0  0  0  0  0
    0.2890   -2.6112   25.8149 C   0  0  0  0  0  0  0  0  0  0  0  0
    0.0534   -2.8617   23.5181 C   0  0  0  0  0  0  0  0  0  0  0  0
   -0.1301   -3.0567   21.7301 C   0  0  0  0  0  0  0  0  0  0  0  0
   -1.3545   -2.8980   21.3623 N   0  0  0  0  0  0  0  0  0  0  0  0
   -1.8232   -2.8064   22.5618 C   0  0  0  0  0  0  0  0  0  0  0  0
   -3.4815   -7.2007   17.4458 C   0  0  0  0  0  0  0  0  0  0  0  0
   -4.1928   -8.1405   16.3437 C   0  0  0  0  0  0  0  0  0  0  0  0
   -5.5837   -8.3223   16.2957 C   0  0  0  0  0  0  0  0  0  0  0  0
   -6.2067   -8.9471   15.1881 C   0  0  0  0  0  0  0  0  0  0  0  0
   -5.4515   -9.3671   14.1074 C   0  0  0  0  0  0  0  0  0  0  0  0
   -5.9938  -10.1096   13.1186 F   0  0  0  0  0  0  0  0  0  0  0  0
   -4.0962   -9.1068   14.1713 C   0  0  0  0  0  0  0  0  0  0  0  0
   -3.4577   -8.5369   15.2571 N   0  0  0  0  0  0  0  0  0  0  0  0
   -2.7701   -9.6014   18.3442 H   0  0  0  0  0  0  0  0  0  0  0  0
   -2.2364   -9.1529   19.9527 H   0  0  0  0  0  0  0  0  0  0  0  0
   -1.3601   -8.5472   18.5307 H   0  0  0  0  0  0  0  0  0  0  0  0
   -3.2570   -5.6143   19.6770 H   0  0  0  0  0  0  0  0  0  0  0  0
   -1.6531   -6.1780   19.2235 H   0  0  0  0  0  0  0  0  0  0  0  0
   -3.0817   -6.8424   21.9227 H   0  0  0  0  0  0  0  0  0  0  0  0
   -1.4481   -7.4070   21.4864 H   0  0  0  0  0  0  0  0  0  0  0  0
   -1.5747   -4.5036   21.3957 H   0  0  0  0  0  0  0  0  0  0  0  0
    1.3974   -2.6623   26.2795 H   0  0  0  0  0  0  0  0  0  0  0  0
    1.3105   -2.6596   22.9627 H   0  0  0  0  0  0  0  0  0  0  0  0
    0.7203   -3.1087   21.0660 H   0  0  0  0  0  0  0  0  0  0  0  0
   -2.6876   -2.2043   22.8053 H   0  0  0  0  0  0  0  0  0  0  0  0
   -4.0928   -6.2901   17.4700 H   0  0  0  0  0  0  0  0  0  0  0  0
   -2.5142   -6.9108   17.0128 H   0  0  0  0  0  0  0  0  0  0  0  0
   -6.2088   -7.9172   17.0854 H   0  0  0  0  0  0  0  0  0  0  0  0
   -7.2808   -9.0825   15.1721 H   0  0  0  0  0  0  0  0  0  0  0  0
   -3.4359   -9.4178   13.3672 H   0  0  0  0  0  0  0  0  0  0  0  0
  1  2  1  0
  2  3  1  0
  3  4  1  0
  4  5  1  0
  5  6  1  0
  6  7  2  0
  6  8  1  0
  8  9  2  0
  9 10  1  0
 10 11  2  0
 11 12  1  0
 12 13  2  0
  2 14  1  0
 14 15  1  0
 15 16  2  0
 16 17  1  0
 17 18  2  0
 18 19  1  0
 18 20  1  0
 20 21  2  0
 13  8  1  0
 21 15  1  0
  1 22  1  0
  1 23  1  0
  1 24  1  0
  3 25  1  0
  3 26  1  0
  4 27  1  0
  4 28  1  0
  5 29  1  0
  9 30  1  0
 10 31  1  0
 11 32  1  0
 13 33  1  0
 14 34  1  0
 14 35  1  0
 16 36  1  0
 17 37  1  0
 20 38  1  0
M  END
>  <Energy>  (414) 
1666.9067934721111

>  <compound_id>  (414) 
19488

>  <target_id>  (414) 
1

>  <reference_id>  (414) 
56

>  <inspiration_ids>  (414) 
[56, 48]

>  <energy_score>  (414) 
1553.660924859056

>  <distance_score>  (414) 
15.340819499253746

>  <path>  (414) 
/opt/xchem-fragalysis-2/maxwin/BulkDock/SCRATCH/511016/C19488-P56/C19488-P56.minimised.mol

>  <scratch_subdir>  (414) 
/opt/xchem-fragalysis-2/maxwin/BulkDock/SCRATCH/511016/C19488-P56

>  <fragmenstein_runtime>  (414) 
28.127418279647827

>  <fragmenstein_outcome>  (414) 
too moved

>  <fragmenstein_mode>  (414) 
expansion

>  <fragmenstein_error>  (414) 


$$$$
C19488-P48
     RDKit          3D

 38 39  0  0  0  0  0  0  0  0999 V2000
   -6.6136  -17.9472   22.9526 C   0  0  0  0  0  0  0  0  0  0  0  0
   -5.0330  -17.1010   22.3417 N   0  0  0  0  0  0  0  0  0  0  0  0
   -4.3298  -15.5570   23.4690 C   0  0  0  0  0  0  0  0  0  0  0  0
   -2.6589  -14.9055   24.5091 C   0  0  0  0  0  0  0  0  0  0  0  0
   -2.4586  -13.4717   25.7894 N   0  0  0  0  0  0  0  0  0  0  0  0
   -2.7950  -13.4119   27.5226 C   0  0  0  0  0  0  0  0  0  0  0  0
   -3.1486  -14.3385   28.2348 O   0  0  0  0  0  0  0  0  0  0  0  0
   -2.5775  -11.8190   28.5766 C   0  0  0  0  0  0  0  0  0  0  0  0
   -1.9623  -11.0523   29.8326 C   0  0  0  0  0  0  0  0  0  0  0  0
   -1.0846   -9.7953   30.2560 C   0  0  0  0  0  0  0  0  0  0  0  0
   -0.3891   -9.2099   29.3196 C   0  0  0  0  0  0  0  0  0  0  0  0
   -0.6903   -9.7862   28.1897 N   0  0  0  0  0  0  0  0  0  0  0  0
   -1.8014  -10.9821   27.8649 C   0  0  0  0  0  0  0  0  0  0  0  0
   -5.8584  -17.3952   21.0691 C   0  0  0  0  0  0  0  0  0  0  0  0
   -5.2789  -18.0627   19.8743 C   0  0  0  0  0  0  0  0  0  0  0  0
   -5.2261  -19.3725   19.8917 C   0  0  0  0  0  0  0  0  0  0  0  0
   -6.1319  -19.7697   19.0272 C   0  0  0  0  0  0  0  0  0  0  0  0
   -7.1833  -19.1828   18.5313 C   0  0  0  0  0  0  0  0  0  0  0  0
   -8.1186  -19.9860   17.9477 F   0  0  0  0  0  0  0  0  0  0  0  0
   -6.9746  -17.9208   18.3926 C   0  0  0  0  0  0  0  0  0  0  0  0
   -5.7602  -17.5224   18.7778 N   0  0  0  0  0  0  0  0  0  0  0  0
   -6.6338  -18.9828   22.5855 H   0  0  0  0  0  0  0  0  0  0  0  0
   -6.5873  -18.1639   23.9863 H   0  0  0  0  0  0  0  0  0  0  0  0
   -7.5208  -17.4203   22.6370 H   0  0  0  0  0  0  0  0  0  0  0  0
   -4.9552  -15.6915   24.3188 H   0  0  0  0  0  0  0  0  0  0  0  0
   -4.9233  -14.6427   23.4372 H   0  0  0  0  0  0  0  0  0  0  0  0
   -2.3326  -15.7348   25.1519 H   0  0  0  0  0  0  0  0  0  0  0  0
   -1.9070  -14.5262   23.8105 H   0  0  0  0  0  0  0  0  0  0  0  0
   -2.1026  -12.5655   25.4798 H   0  0  0  0  0  0  0  0  0  0  0  0
   -1.5703  -11.2869   30.8179 H   0  0  0  0  0  0  0  0  0  0  0  0
   -0.9606   -9.5251   31.3034 H   0  0  0  0  0  0  0  0  0  0  0  0
    0.3792   -8.4781   29.4403 H   0  0  0  0  0  0  0  0  0  0  0  0
   -2.1316  -11.0250   26.8495 H   0  0  0  0  0  0  0  0  0  0  0  0
   -6.6496  -16.6784   20.8339 H   0  0  0  0  0  0  0  0  0  0  0  0
   -6.6245  -18.1814   21.1032 H   0  0  0  0  0  0  0  0  0  0  0  0
   -4.7579  -20.0428   20.5765 H   0  0  0  0  0  0  0  0  0  0  0  0
   -6.3454  -20.6080   18.4620 H   0  0  0  0  0  0  0  0  0  0  0  0
   -7.6270  -17.3270   17.7591 H   0  0  0  0  0  0  0  0  0  0  0  0
  1  2  1  0
  2  3  1  0
  3  4  1  0
  4  5  1  0
  5  6  1  0
  6  7  2  0
  6  8  1  0
  8  9  2  0
  9 10  1  0
 10 11  2  0
 11 12  1  0
 12 13  2  0
  2 14  1  0
 14 15  1  0
 15 16  2  0
 16 17  1  0
 17 18  2  0
 18 19  1  0
 18 20  1  0
 20 21  2  0
 13  8  1  0
 21 15  1  0
  1 22  1  0
  1 23  1  0
  1 24  1  0
  3 25  1  0
  3 26  1  0
  4 27  1  0
  4 28  1  0
  5 29  1  0
  9 30  1  0
 10 31  1  0
 11 32  1  0
 13 33  1  0
 14 34  1  0
 14 35  1  0
 16 36  1  0
 17 37  1  0
 20 38  1  0
M  END
>  <Energy>  (415) 
863.31989821704872

>  <compound_id>  (415) 
19488

>  <target_id>  (415) 
1

>  <reference_id>  (415) 
48

>  <inspiration_ids>  (415) 
[56, 48]

>  <energy_score>  (415) 
750.0740296039857

>  <distance_score>  (415) 
11.80876381532455

>  <path>  (415) 
/opt/xchem-fragalysis-2/maxwin/BulkDock/SCRATCH/511016/C19488-P48/C19488-P48.minimised.mol

>  <scratch_subdir>  (415) 
/opt/xchem-fragalysis-2/maxwin/BulkDock/SCRATCH/511016/C19488-P48

>  <fragmenstein_runtime>  (415) 
18.23888373374939

>  <fragmenstein_outcome>  (415) 
too moved

>  <fragmenstein_mode>  (415) 
expansion

>  <fragmenstein_error>  (415) 


$$$$
C19493-P56
     RDKit          3D

 42 43  0  0  0  0  0  0  0  0999 V2000
   -3.1343  -12.1958   29.8850 O   0  0  0  0  0  0  0  0  0  0  0  0
   -3.9339  -11.6728   30.6211 C   0  0  0  0  0  0  0  0  0  0  0  0
   -5.5149  -11.8748   30.7331 N   0  0  0  0  0  0  0  0  0  0  0  0
   -6.4936  -12.7173   29.8675 C   0  0  0  0  0  0  0  0  0  0  0  0
   -6.3409  -13.2709   28.4027 C   0  0  0  0  0  0  0  0  0  0  0  0
   -7.6901  -14.1695   27.7473 C   0  0  0  0  0  0  0  0  0  0  0  0
   -7.9569  -14.7167   26.0919 N   0  0  0  0  0  0  0  0  0  0  0  0
   -7.9987  -16.0445   24.9726 C   0  0  0  0  0  0  0  0  0  0  0  0
   -7.2386  -17.0141   23.2650 C   0  0  0  0  0  0  0  0  0  0  0  0
   -6.7619  -18.3648   23.2089 C   0  0  0  0  0  0  0  0  0  0  0  0
   -6.8493  -19.3506   22.2383 C   0  0  0  0  0  0  0  0  0  0  0  0
   -6.6618  -19.0060   20.9602 C   0  0  0  0  0  0  0  0  0  0  0  0
   -6.8801  -17.7663   20.7393 N   0  0  0  0  0  0  0  0  0  0  0  0
   -7.5421  -17.0902   21.7889 C   0  0  0  0  0  0  0  0  0  0  0  0
   -3.3631  -10.2431   31.8260 C   0  0  0  0  0  0  0  0  0  0  0  0
   -4.4570   -9.5992   32.5363 O   0  0  0  0  0  0  0  0  0  0  0  0
   -2.2218   -9.1387   31.9344 C   0  0  0  0  0  0  0  0  0  0  0  0
   -2.1672   -8.3960   33.1537 C   0  0  0  0  0  0  0  0  0  0  0  0
   -1.2587   -7.3629   33.3801 C   0  0  0  0  0  0  0  0  0  0  0  0
   -0.3885   -7.0657   32.3658 C   0  0  0  0  0  0  0  0  0  0  0  0
   -0.3412   -7.7838   31.2334 N   0  0  0  0  0  0  0  0  0  0  0  0
   -1.1606   -8.8559   31.1023 C   0  0  0  0  0  0  0  0  0  0  0  0
   -5.8700  -11.3379   31.5161 H   0  0  0  0  0  0  0  0  0  0  0  0
   -6.8092  -13.5566   30.4896 H   0  0  0  0  0  0  0  0  0  0  0  0
   -7.3750  -12.0632   29.8354 H   0  0  0  0  0  0  0  0  0  0  0  0
   -6.1453  -12.4578   27.7015 H   0  0  0  0  0  0  0  0  0  0  0  0
   -5.4859  -13.9434   28.4617 H   0  0  0  0  0  0  0  0  0  0  0  0
   -7.8795  -15.0503   28.3750 H   0  0  0  0  0  0  0  0  0  0  0  0
   -8.5425  -13.4898   27.8756 H   0  0  0  0  0  0  0  0  0  0  0  0
   -8.9210  -14.9149   26.3807 H   0  0  0  0  0  0  0  0  0  0  0  0
   -8.2784  -16.5507   25.9024 H   0  0  0  0  0  0  0  0  0  0  0  0
   -9.0640  -16.1101   24.7970 H   0  0  0  0  0  0  0  0  0  0  0  0
   -6.4118  -18.7773   24.0999 H   0  0  0  0  0  0  0  0  0  0  0  0
   -6.7469  -20.3016   22.6993 H   0  0  0  0  0  0  0  0  0  0  0  0
   -6.3238  -19.6243   20.1522 H   0  0  0  0  0  0  0  0  0  0  0  0
   -7.9953  -16.2980   21.2376 H   0  0  0  0  0  0  0  0  0  0  0  0
   -2.6858  -10.7110   32.5025 H   0  0  0  0  0  0  0  0  0  0  0  0
   -4.7541   -8.8515   31.9759 H   0  0  0  0  0  0  0  0  0  0  0  0
   -2.8571   -8.6376   33.9627 H   0  0  0  0  0  0  0  0  0  0  0  0
   -1.2525   -6.7965   34.3038 H   0  0  0  0  0  0  0  0  0  0  0  0
    0.3355   -6.2604   32.4438 H   0  0  0  0  0  0  0  0  0  0  0  0
   -0.9057   -9.4675   30.2378 H   0  0  0  0  0  0  0  0  0  0  0  0
  1  2  2  0
  2  3  1  0
  3  4  1  0
  4  5  1  0
  5  6  1  0
  6  7  1  0
  7  8  1  0
  8  9  1  0
  9 10  2  0
 10 11  1  0
 11 12  2  0
 12 13  1  0
 13 14  2  0
  2 15  1  0
 15 16  1  0
 15 17  1  0
 17 18  2  0
 18 19  1  0
 19 20  2  0
 20 21  1  0
 21 22  2  0
 14  9  1  0
 22 17  1  0
  3 23  1  0
  4 24  1  0
  4 25  1  0
  5 26  1  0
  5 27  1  0
  6 28  1  0
  6 29  1  0
  7 30  1  0
  8 31  1  0
  8 32  1  0
 10 33  1  0
 11 34  1  0
 12 35  1  0
 14 36  1  0
 15 37  1  0
 16 38  1  0
 18 39  1  0
 19 40  1  0
 20 41  1  0
 22 42  1  0
M  END
>  <Energy>  (416) 
560.478755294444

>  <compound_id>  (416) 
19493

>  <target_id>  (416) 
1

>  <reference_id>  (416) 
56

>  <inspiration_ids>  (416) 
[56, 48]

>  <energy_score>  (416) 
471.44971132412525

>  <distance_score>  (416) 
12.653022934107675

>  <path>  (416) 
/opt/xchem-fragalysis-2/maxwin/BulkDock/SCRATCH/511016/C19493-P56/C19493-P56.minimised.mol

>  <scratch_subdir>  (416) 
/opt/xchem-fragalysis-2/maxwin/BulkDock/SCRATCH/511016/C19493-P56

>  <fragmenstein_runtime>  (416) 
10.56580114364624

>  <fragmenstein_outcome>  (416) 
too moved

>  <fragmenstein_mode>  (416) 
expansion

>  <fragmenstein_error>  (416) 


$$$$
C19493-P48
     RDKit          3D

 42 43  0  0  0  0  0  0  0  0999 V2000
   -0.9049   -9.6460   28.9689 O   0  0  0  0  0  0  0  0  0  0  0  0
   -0.1631   -9.4262   28.0196 C   0  0  0  0  0  0  0  0  0  0  0  0
   -0.2411   -9.9656   26.4626 N   0  0  0  0  0  0  0  0  0  0  0  0
   -1.4258  -11.0952   25.6525 C   0  0  0  0  0  0  0  0  0  0  0  0
   -1.9370  -12.9212   25.5860 C   0  0  0  0  0  0  0  0  0  0  0  0
   -2.4535  -14.2487   24.2985 C   0  0  0  0  0  0  0  0  0  0  0  0
   -3.9862  -15.1722   23.5678 N   0  0  0  0  0  0  0  0  0  0  0  0
   -4.3871  -16.3015   22.0007 C   0  0  0  0  0  0  0  0  0  0  0  0
   -5.4567  -17.4774   21.1601 C   0  0  0  0  0  0  0  0  0  0  0  0
   -6.6175  -18.0718   21.4708 C   0  0  0  0  0  0  0  0  0  0  0  0
   -6.8249  -19.0835   20.5637 C   0  0  0  0  0  0  0  0  0  0  0  0
   -6.4868  -18.9807   19.2130 C   0  0  0  0  0  0  0  0  0  0  0  0
   -5.2925  -18.6021   18.8485 N   0  0  0  0  0  0  0  0  0  0  0  0
   -4.7434  -17.9365   19.8347 C   0  0  0  0  0  0  0  0  0  0  0  0
    1.1210   -8.5513   28.5102 C   0  0  0  0  0  0  0  0  0  0  0  0
    2.1009   -8.1381   27.5837 O   0  0  0  0  0  0  0  0  0  0  0  0
    0.9340   -7.5072   29.6864 C   0  0  0  0  0  0  0  0  0  0  0  0
    0.0667   -7.6838   30.7798 C   0  0  0  0  0  0  0  0  0  0  0  0
   -0.0076   -6.7369   31.8023 C   0  0  0  0  0  0  0  0  0  0  0  0
    0.7942   -5.6171   31.7140 C   0  0  0  0  0  0  0  0  0  0  0  0
    1.6534   -5.3981   30.6988 N   0  0  0  0  0  0  0  0  0  0  0  0
    1.7088   -6.3363   29.7234 C   0  0  0  0  0  0  0  0  0  0  0  0
    0.4955   -9.5370   25.9173 H   0  0  0  0  0  0  0  0  0  0  0  0
   -1.7895  -11.1955   26.6618 H   0  0  0  0  0  0  0  0  0  0  0  0
   -0.5670  -11.4006   25.0535 H   0  0  0  0  0  0  0  0  0  0  0  0
   -2.6854  -13.0142   26.3791 H   0  0  0  0  0  0  0  0  0  0  0  0
   -1.0213  -13.4006   25.9628 H   0  0  0  0  0  0  0  0  0  0  0  0
   -2.0941  -15.0864   24.9283 H   0  0  0  0  0  0  0  0  0  0  0  0
   -1.6842  -14.1282   23.5233 H   0  0  0  0  0  0  0  0  0  0  0  0
   -4.2072  -15.9019   24.2493 H   0  0  0  0  0  0  0  0  0  0  0  0
   -3.6487  -16.2157   21.1434 H   0  0  0  0  0  0  0  0  0  0  0  0
   -3.9251  -17.0436   22.3983 H   0  0  0  0  0  0  0  0  0  0  0  0
   -7.1699  -17.9725   22.3879 H   0  0  0  0  0  0  0  0  0  0  0  0
   -5.9679  -19.7645   20.8337 H   0  0  0  0  0  0  0  0  0  0  0  0
   -7.1409  -19.3796   18.4666 H   0  0  0  0  0  0  0  0  0  0  0  0
   -3.7212  -17.6149   19.6270 H   0  0  0  0  0  0  0  0  0  0  0  0
    1.6387   -9.2885   29.1058 H   0  0  0  0  0  0  0  0  0  0  0  0
    1.6205   -7.5574   26.9596 H   0  0  0  0  0  0  0  0  0  0  0  0
   -0.5439   -8.5761   30.8803 H   0  0  0  0  0  0  0  0  0  0  0  0
   -0.6742   -6.8800   32.6462 H   0  0  0  0  0  0  0  0  0  0  0  0
    0.7718   -4.8480   32.4812 H   0  0  0  0  0  0  0  0  0  0  0  0
    2.4346   -6.1113   28.9449 H   0  0  0  0  0  0  0  0  0  0  0  0
  1  2  2  0
  2  3  1  0
  3  4  1  0
  4  5  1  0
  5  6  1  0
  6  7  1  0
  7  8  1  0
  8  9  1  0
  9 10  2  0
 10 11  1  0
 11 12  2  0
 12 13  1  0
 13 14  2  0
  2 15  1  0
 15 16  1  0
 15 17  1  0
 17 18  2  0
 18 19  1  0
 19 20  2  0
 20 21  1  0
 21 22  2  0
 14  9  1  0
 22 17  1  0
  3 23  1  0
  4 24  1  0
  4 25  1  0
  5 26  1  0
  5 27  1  0
  6 28  1  0
  6 29  1  0
  7 30  1  0
  8 31  1  0
  8 32  1  0
 10 33  1  0
 11 34  1  0
 12 35  1  0
 14 36  1  0
 15 37  1  0
 16 38  1  0
 18 39  1  0
 19 40  1  0
 20 41  1  0
 22 42  1  0
M  END
>  <Energy>  (417) 
626.47831148683167

>  <compound_id>  (417) 
19493

>  <target_id>  (417) 
1

>  <reference_id>  (417) 
48

>  <inspiration_ids>  (417) 
[56, 48]

>  <energy_score>  (417) 
537.4492675165162

>  <distance_score>  (417) 
12.2222335217378

>  <path>  (417) 
/opt/xchem-fragalysis-2/maxwin/BulkDock/SCRATCH/511016/C19493-P48/C19493-P48.minimised.mol

>  <scratch_subdir>  (417) 
/opt/xchem-fragalysis-2/maxwin/BulkDock/SCRATCH/511016/C19493-P48

>  <fragmenstein_runtime>  (417) 
9.722476243972778

>  <fragmenstein_outcome>  (417) 
too moved

>  <fragmenstein_mode>  (417) 
expansion

>  <fragmenstein_error>  (417) 


$$$$
C19494-P56
     RDKit          3D

 44 48  0  0  0  0  0  0  0  0999 V2000
   -8.1924  -13.9015   33.3350 C   0  0  0  0  0  0  0  0  0  0  0  0
   -7.4109  -15.0296   33.1513 C   0  0  0  0  0  0  0  0  0  0  0  0
   -6.3219  -14.9700   32.2809 C   0  0  0  0  0  0  0  0  0  0  0  0
   -6.0220  -13.7848   31.6071 C   0  0  0  0  0  0  0  0  0  0  0  0
   -4.9521  -13.7026   30.7321 N   0  0  0  0  0  0  0  0  0  0  0  0
   -3.7680  -14.4869   30.9195 C   0  0  0  0  0  0  0  0  0  0  0  0
   -2.6837  -13.7952   30.0664 C   0  0  0  0  0  0  0  0  0  0  0  0
   -1.7337  -13.2718   31.1626 C   0  0  0  0  0  0  0  0  0  0  0  0
   -1.1501  -12.0257   30.6475 C   0  0  0  0  0  0  0  0  0  0  0  0
   -2.2125  -11.3730   29.7967 C   0  0  0  0  0  0  0  0  0  0  0  0
   -3.3404  -12.3866   29.0373 C   0  0  0  0  0  0  0  0  0  0  0  0
   -3.6049  -12.5768   27.0040 C   0  0  0  0  0  0  0  0  0  0  0  0
   -3.0193  -14.0671   26.3559 N   0  0  0  0  0  0  0  0  0  0  0  0
   -2.4470  -14.8909   25.0144 C   0  0  0  0  0  0  0  0  0  0  0  0
   -3.0185  -15.1807   23.1848 C   0  0  0  0  0  0  0  0  0  0  0  0
   -3.9030  -16.3435   22.0025 C   0  0  0  0  0  0  0  0  0  0  0  0
   -3.3768  -16.9283   20.4507 C   0  0  0  0  0  0  0  0  0  0  0  0
   -2.3245  -16.5773   19.6990 C   0  0  0  0  0  0  0  0  0  0  0  0
   -1.8718  -15.4200   20.0808 N   0  0  0  0  0  0  0  0  0  0  0  0
   -2.0641  -14.7302   21.5269 C   0  0  0  0  0  0  0  0  0  0  0  0
   -1.6528  -13.7350   25.4287 N   0  0  0  0  0  0  0  0  0  0  0  0
   -2.6656  -12.3186   25.6744 O   0  0  0  0  0  0  0  0  0  0  0  0
   -4.7200  -12.4302   30.0415 C   0  0  0  0  0  0  0  0  0  0  0  0
   -6.8000  -12.6905   31.7818 N   0  0  0  0  0  0  0  0  0  0  0  0
   -7.8494  -12.7649   32.6306 C   0  0  0  0  0  0  0  0  0  0  0  0
   -9.0471  -13.9085   34.0005 H   0  0  0  0  0  0  0  0  0  0  0  0
   -7.6439  -15.9540   33.6707 H   0  0  0  0  0  0  0  0  0  0  0  0
   -5.7276  -15.8628   32.1229 H   0  0  0  0  0  0  0  0  0  0  0  0
   -3.5111  -14.5679   31.9838 H   0  0  0  0  0  0  0  0  0  0  0  0
   -3.8990  -15.5307   30.6077 H   0  0  0  0  0  0  0  0  0  0  0  0
   -2.1322  -14.5272   29.4587 H   0  0  0  0  0  0  0  0  0  0  0  0
   -2.2527  -13.0238   32.0982 H   0  0  0  0  0  0  0  0  0  0  0  0
   -0.9681  -14.0130   31.4169 H   0  0  0  0  0  0  0  0  0  0  0  0
   -0.1982  -12.1790   30.1302 H   0  0  0  0  0  0  0  0  0  0  0  0
   -1.0120  -11.3448   31.4679 H   0  0  0  0  0  0  0  0  0  0  0  0
   -2.7031  -10.8384   30.6121 H   0  0  0  0  0  0  0  0  0  0  0  0
   -1.6450  -10.7325   29.1196 H   0  0  0  0  0  0  0  0  0  0  0  0
   -4.8391  -16.8524   22.0241 H   0  0  0  0  0  0  0  0  0  0  0  0
   -4.0329  -17.6409   19.9147 H   0  0  0  0  0  0  0  0  0  0  0  0
   -2.0344  -16.9902   18.7493 H   0  0  0  0  0  0  0  0  0  0  0  0
   -2.1732  -13.7367   20.9768 H   0  0  0  0  0  0  0  0  0  0  0  0
   -4.5126  -11.8062   30.9093 H   0  0  0  0  0  0  0  0  0  0  0  0
   -5.6388  -12.1376   29.5319 H   0  0  0  0  0  0  0  0  0  0  0  0
   -8.4254  -11.8497   32.7288 H   0  0  0  0  0  0  0  0  0  0  0  0
  1  2  2  0
  2  3  1  0
  3  4  2  0
  4  5  1  0
  5  6  1  0
  6  7  1  0
  7  8  1  0
  8  9  1  0
  9 10  1  0
 10 11  1  0
 11 12  1  0
 12 13  2  0
 13 14  1  0
 14 15  1  0
 15 16  2  0
 16 17  1  0
 17 18  2  0
 18 19  1  0
 19 20  2  0
 14 21  2  0
 21 22  1  0
 11 23  1  0
  4 24  1  0
 24 25  2  0
 25  1  1  0
 23  5  1  0
 11  7  1  0
 22 12  1  0
 20 15  1  0
  1 26  1  0
  2 27  1  0
  3 28  1  0
  6 29  1  0
  6 30  1  0
  7 31  1  0
  8 32  1  0
  8 33  1  0
  9 34  1  0
  9 35  1  0
 10 36  1  0
 10 37  1  0
 16 38  1  0
 17 39  1  0
 18 40  1  0
 20 41  1  0
 23 42  1  0
 23 43  1  0
 25 44  1  0
M  END
>  <Energy>  (418) 
973.78880452555097

>  <compound_id>  (418) 
19494

>  <target_id>  (418) 
1

>  <reference_id>  (418) 
56

>  <inspiration_ids>  (418) 
[56, 48]

>  <energy_score>  (418) 
902.901114834061

>  <distance_score>  (418) 
14.340157545325619

>  <path>  (418) 
/opt/xchem-fragalysis-2/maxwin/BulkDock/SCRATCH/511016/C19494-P56/C19494-P56.minimised.mol

>  <scratch_subdir>  (418) 
/opt/xchem-fragalysis-2/maxwin/BulkDock/SCRATCH/511016/C19494-P56

>  <fragmenstein_runtime>  (418) 
14.269192457199097

>  <fragmenstein_outcome>  (418) 
too moved

>  <fragmenstein_mode>  (418) 
expansion

>  <fragmenstein_error>  (418) 


$$$$
C19494-P48
     RDKit          3D

 44 48  0  0  0  0  0  0  0  0999 V2000
    1.8504   -5.0135   28.0862 C   0  0  0  0  0  0  0  0  0  0  0  0
    0.8824   -4.9530   29.0762 C   0  0  0  0  0  0  0  0  0  0  0  0
   -0.0095   -6.0140   29.2188 C   0  0  0  0  0  0  0  0  0  0  0  0
    0.0866   -7.1227   28.3761 C   0  0  0  0  0  0  0  0  0  0  0  0
   -0.8391   -8.1740   28.5130 N   0  0  0  0  0  0  0  0  0  0  0  0
   -0.7471   -8.8662   29.7142 C   0  0  0  0  0  0  0  0  0  0  0  0
   -1.1345  -10.3604   29.0652 C   0  0  0  0  0  0  0  0  0  0  0  0
   -1.6515  -11.1845   30.1359 C   0  0  0  0  0  0  0  0  0  0  0  0
   -2.7852  -12.1000   29.5268 C   0  0  0  0  0  0  0  0  0  0  0  0
   -2.8616  -11.9686   28.0824 C   0  0  0  0  0  0  0  0  0  0  0  0
   -1.8870  -11.0395   27.2591 C   0  0  0  0  0  0  0  0  0  0  0  0
   -1.9470  -12.8284   26.0864 C   0  0  0  0  0  0  0  0  0  0  0  0
   -2.5966  -14.2914   25.7036 N   0  0  0  0  0  0  0  0  0  0  0  0
   -3.1183  -15.0446   23.9485 C   0  0  0  0  0  0  0  0  0  0  0  0
   -4.1213  -16.1643   22.4359 C   0  0  0  0  0  0  0  0  0  0  0  0
   -5.4126  -17.2232   21.8383 C   0  0  0  0  0  0  0  0  0  0  0  0
   -5.7751  -18.0490   20.5569 C   0  0  0  0  0  0  0  0  0  0  0  0
   -4.7796  -18.1843   19.6054 C   0  0  0  0  0  0  0  0  0  0  0  0
   -3.5878  -17.5273   19.7665 N   0  0  0  0  0  0  0  0  0  0  0  0
   -3.3565  -16.6220   20.9525 C   0  0  0  0  0  0  0  0  0  0  0  0
   -1.5305  -14.5922   23.7668 N   0  0  0  0  0  0  0  0  0  0  0  0
   -1.1129  -12.9988   24.6375 O   0  0  0  0  0  0  0  0  0  0  0  0
   -0.6176   -9.3875   27.5472 C   0  0  0  0  0  0  0  0  0  0  0  0
    1.0444   -7.1908   27.4243 N   0  0  0  0  0  0  0  0  0  0  0  0
    1.8867   -6.1414   27.2883 C   0  0  0  0  0  0  0  0  0  0  0  0
    2.5481   -4.1987   27.9297 H   0  0  0  0  0  0  0  0  0  0  0  0
    0.8058   -4.0819   29.7201 H   0  0  0  0  0  0  0  0  0  0  0  0
   -0.7856   -5.9675   29.9737 H   0  0  0  0  0  0  0  0  0  0  0  0
   -1.3204   -8.4471   30.5469 H   0  0  0  0  0  0  0  0  0  0  0  0
    0.2830   -8.8360   30.0794 H   0  0  0  0  0  0  0  0  0  0  0  0
   -0.0583  -10.5026   29.1102 H   0  0  0  0  0  0  0  0  0  0  0  0
   -1.8316  -10.4854   30.9662 H   0  0  0  0  0  0  0  0  0  0  0  0
   -0.9630  -11.9027   30.5586 H   0  0  0  0  0  0  0  0  0  0  0  0
   -2.5423  -13.1351   29.8419 H   0  0  0  0  0  0  0  0  0  0  0  0
   -3.8282  -11.9920   29.8415 H   0  0  0  0  0  0  0  0  0  0  0  0
   -2.3325  -12.9117   27.9337 H   0  0  0  0  0  0  0  0  0  0  0  0
   -3.8269  -12.0891   27.6109 H   0  0  0  0  0  0  0  0  0  0  0  0
   -6.1165  -17.6713   22.6074 H   0  0  0  0  0  0  0  0  0  0  0  0
   -6.6966  -18.6176   20.5322 H   0  0  0  0  0  0  0  0  0  0  0  0
   -4.8778  -18.7995   18.7206 H   0  0  0  0  0  0  0  0  0  0  0  0
   -2.3903  -16.1336   20.7034 H   0  0  0  0  0  0  0  0  0  0  0  0
    0.4741   -9.5363   27.7873 H   0  0  0  0  0  0  0  0  0  0  0  0
   -0.7998   -8.7375   26.6377 H   0  0  0  0  0  0  0  0  0  0  0  0
    2.6141   -6.2345   26.4868 H   0  0  0  0  0  0  0  0  0  0  0  0
  1  2  2  0
  2  3  1  0
  3  4  2  0
  4  5  1  0
  5  6  1  0
  6  7  1  0
  7  8  1  0
  8  9  1  0
  9 10  1  0
 10 11  1  0
 11 12  1  0
 12 13  2  0
 13 14  1  0
 14 15  1  0
 15 16  2  0
 16 17  1  0
 17 18  2  0
 18 19  1  0
 19 20  2  0
 14 21  2  0
 21 22  1  0
 11 23  1  0
  4 24  1  0
 24 25  2  0
 25  1  1  0
 23  5  1  0
 11  7  1  0
 22 12  1  0
 20 15  1  0
  1 26  1  0
  2 27  1  0
  3 28  1  0
  6 29  1  0
  6 30  1  0
  7 31  1  0
  8 32  1  0
  8 33  1  0
  9 34  1  0
  9 35  1  0
 10 36  1  0
 10 37  1  0
 16 38  1  0
 17 39  1  0
 18 40  1  0
 20 41  1  0
 23 42  1  0
 23 43  1  0
 25 44  1  0
M  END
>  <Energy>  (419) 
1302.880111233163

>  <compound_id>  (419) 
19494

>  <target_id>  (419) 
1

>  <reference_id>  (419) 
48

>  <inspiration_ids>  (419) 
[56, 48]

>  <energy_score>  (419) 
1231.9924215416754

>  <distance_score>  (419) 
13.603464866561577

>  <path>  (419) 
/opt/xchem-fragalysis-2/maxwin/BulkDock/SCRATCH/511016/C19494-P48/C19494-P48.minimised.mol

>  <scratch_subdir>  (419) 
/opt/xchem-fragalysis-2/maxwin/BulkDock/SCRATCH/511016/C19494-P48

>  <fragmenstein_runtime>  (419) 
12.312244653701782

>  <fragmenstein_outcome>  (419) 
too moved

>  <fragmenstein_mode>  (419) 
expansion

>  <fragmenstein_error>  (419) 


$$$$
C19496-P56
     RDKit          3D

 49 50  0  0  0  0  0  0  0  0999 V2000
   -0.3115   -8.0571   27.5682 C   0  0  0  0  0  0  0  0  0  0  0  0
   -0.6311   -9.3012   28.4078 C   0  0  0  0  0  0  0  0  0  0  0  0
   -1.1690  -10.4798   27.9415 N   0  0  0  0  0  0  0  0  0  0  0  0
   -2.3835  -10.6934   26.5780 N   0  0  0  0  0  0  0  0  0  0  0  0
   -3.0886  -12.2418   25.7231 C   0  0  0  0  0  0  0  0  0  0  0  0
   -2.6777  -13.3493   25.9951 O   0  0  0  0  0  0  0  0  0  0  0  0
   -4.7249  -12.3946   24.3830 C   0  0  0  0  0  0  0  0  0  0  0  0
   -5.9668  -13.6329   23.1792 C   0  0  0  0  0  0  0  0  0  0  0  0
   -6.6311  -15.2365   22.0293 C   0  0  0  0  0  0  0  0  0  0  0  0
   -7.6910  -15.8819   20.4150 C   0  0  0  0  0  0  0  0  0  0  0  0
   -8.2322  -14.9351   19.8731 O   0  0  0  0  0  0  0  0  0  0  0  0
   -7.8045  -17.6092   19.8179 N   0  0  0  0  0  0  0  0  0  0  0  0
   -8.7806  -18.3620   18.4128 N   0  0  0  0  0  0  0  0  0  0  0  0
   -8.8015  -19.8555   17.8343 C   0  0  0  0  0  0  0  0  0  0  0  0
   -7.7788  -20.5275   18.7066 C   0  0  0  0  0  0  0  0  0  0  0  0
   -9.5803  -20.9913   16.3361 C   0  0  0  0  0  0  0  0  0  0  0  0
   -9.4781  -22.3715   15.4527 C   0  0  0  0  0  0  0  0  0  0  0  0
   -9.8961  -22.9083   14.0975 C   0  0  0  0  0  0  0  0  0  0  0  0
  -10.4390  -22.0930   13.1795 C   0  0  0  0  0  0  0  0  0  0  0  0
  -10.6065  -20.8507   13.5833 N   0  0  0  0  0  0  0  0  0  0  0  0
  -10.1321  -20.4567   15.0196 C   0  0  0  0  0  0  0  0  0  0  0  0
   -0.6132   -8.8832   29.9712 C   0  0  0  0  0  0  0  0  0  0  0  0
   -1.2482   -9.6253   30.9911 C   0  0  0  0  0  0  0  0  0  0  0  0
   -1.5684   -9.0544   32.2446 C   0  0  0  0  0  0  0  0  0  0  0  0
   -1.2306   -7.7408   32.4859 C   0  0  0  0  0  0  0  0  0  0  0  0
   -0.6554   -6.9669   31.5569 N   0  0  0  0  0  0  0  0  0  0  0  0
   -0.3685   -7.5463   30.3542 C   0  0  0  0  0  0  0  0  0  0  0  0
   -0.9841   -7.2282   27.8194 H   0  0  0  0  0  0  0  0  0  0  0  0
    0.6987   -7.7440   27.7954 H   0  0  0  0  0  0  0  0  0  0  0  0
   -0.4265   -8.1969   26.5009 H   0  0  0  0  0  0  0  0  0  0  0  0
   -2.7726   -9.8720   26.1621 H   0  0  0  0  0  0  0  0  0  0  0  0
   -5.7200  -12.1528   24.8418 H   0  0  0  0  0  0  0  0  0  0  0  0
   -4.5770  -11.3887   24.0634 H   0  0  0  0  0  0  0  0  0  0  0  0
   -5.3327  -14.4727   23.4749 H   0  0  0  0  0  0  0  0  0  0  0  0
   -6.9066  -13.5059   23.7375 H   0  0  0  0  0  0  0  0  0  0  0  0
   -5.7299  -15.8473   21.8877 H   0  0  0  0  0  0  0  0  0  0  0  0
   -7.2222  -15.7413   22.8098 H   0  0  0  0  0  0  0  0  0  0  0  0
   -7.3426  -18.2220   20.4783 H   0  0  0  0  0  0  0  0  0  0  0  0
   -7.1765  -21.2695   18.2076 H   0  0  0  0  0  0  0  0  0  0  0  0
   -7.0089  -19.8069   19.0038 H   0  0  0  0  0  0  0  0  0  0  0  0
   -8.2762  -20.7978   19.6386 H   0  0  0  0  0  0  0  0  0  0  0  0
   -8.7961  -23.1875   15.6067 H   0  0  0  0  0  0  0  0  0  0  0  0
   -9.6931  -23.9435   13.8433 H   0  0  0  0  0  0  0  0  0  0  0  0
  -10.7217  -22.3749   12.1810 H   0  0  0  0  0  0  0  0  0  0  0  0
  -10.3316  -19.3546   15.0607 H   0  0  0  0  0  0  0  0  0  0  0  0
   -1.5834  -10.6380   30.7983 H   0  0  0  0  0  0  0  0  0  0  0  0
   -2.0640   -9.6436   33.0070 H   0  0  0  0  0  0  0  0  0  0  0  0
   -1.4327   -7.2599   33.4376 H   0  0  0  0  0  0  0  0  0  0  0  0
    0.0728   -6.8225   29.6761 H   0  0  0  0  0  0  0  0  0  0  0  0
  1  2  1  0
  2  3  2  3
  3  4  1  0
  4  5  1  0
  5  6  2  0
  5  7  1  0
  7  8  1  0
  8  9  1  0
  9 10  1  0
 10 11  2  0
 10 12  1  0
 12 13  1  0
 13 14  2  3
 14 15  1  0
 14 16  1  0
 16 17  2  0
 17 18  1  0
 18 19  2  0
 19 20  1  0
 20 21  2  0
  2 22  1  0
 22 23  2  0
 23 24  1  0
 24 25  2  0
 25 26  1  0
 26 27  2  0
 21 16  1  0
 27 22  1  0
  1 28  1  0
  1 29  1  0
  1 30  1  0
  4 31  1  0
  7 32  1  0
  7 33  1  0
  8 34  1  0
  8 35  1  0
  9 36  1  0
  9 37  1  0
 12 38  1  0
 15 39  1  0
 15 40  1  0
 15 41  1  0
 17 42  1  0
 18 43  1  0
 19 44  1  0
 21 45  1  0
 23 46  1  0
 24 47  1  0
 25 48  1  0
 27 49  1  0
M  END
>  <Energy>  (420) 
1181.3413101386168

>  <compound_id>  (420) 
19496

>  <target_id>  (420) 
1

>  <reference_id>  (420) 
56

>  <inspiration_ids>  (420) 
[56, 48]

>  <energy_score>  (420) 
965.6679612886825

>  <distance_score>  (420) 
9.69572712154089

>  <path>  (420) 
/opt/xchem-fragalysis-2/maxwin/BulkDock/SCRATCH/511016/C19496-P56/C19496-P56.minimised.mol

>  <scratch_subdir>  (420) 
/opt/xchem-fragalysis-2/maxwin/BulkDock/SCRATCH/511016/C19496-P56

>  <fragmenstein_runtime>  (420) 
14.200205326080322

>  <fragmenstein_outcome>  (420) 
too moved

>  <fragmenstein_mode>  (420) 
expansion

>  <fragmenstein_error>  (420) 


$$$$
C19496-P48
     RDKit          3D

 49 50  0  0  0  0  0  0  0  0999 V2000
    0.9279   -8.2020   30.5806 C   0  0  0  0  0  0  0  0  0  0  0  0
    1.3574   -9.6070   29.5681 C   0  0  0  0  0  0  0  0  0  0  0  0
    0.2780   -9.2131   28.7618 N   0  0  0  0  0  0  0  0  0  0  0  0
   -0.7398  -10.1017   28.6302 N   0  0  0  0  0  0  0  0  0  0  0  0
   -1.5895  -10.8186   29.6888 C   0  0  0  0  0  0  0  0  0  0  0  0
   -1.5984  -10.6729   30.8705 O   0  0  0  0  0  0  0  0  0  0  0  0
   -2.6515  -12.2597   28.8275 C   0  0  0  0  0  0  0  0  0  0  0  0
   -1.9064  -14.1304   28.2911 C   0  0  0  0  0  0  0  0  0  0  0  0
   -2.0945  -15.9612   27.5993 C   0  0  0  0  0  0  0  0  0  0  0  0
   -1.4258  -17.4596   26.5883 C   0  0  0  0  0  0  0  0  0  0  0  0
   -0.2874  -17.5908   26.7847 O   0  0  0  0  0  0  0  0  0  0  0  0
   -2.3045  -18.2438   25.8037 N   0  0  0  0  0  0  0  0  0  0  0  0
   -2.0852  -19.5403   25.0604 N   0  0  0  0  0  0  0  0  0  0  0  0
   -2.7418  -20.2661   24.1241 C   0  0  0  0  0  0  0  0  0  0  0  0
   -2.1980  -21.6958   23.9505 C   0  0  0  0  0  0  0  0  0  0  0  0
   -3.8236  -20.0799   23.0379 C   0  0  0  0  0  0  0  0  0  0  0  0
   -3.4091  -19.9262   21.6943 C   0  0  0  0  0  0  0  0  0  0  0  0
   -4.3117  -20.0418   20.6196 C   0  0  0  0  0  0  0  0  0  0  0  0
   -5.6298  -20.3361   20.9026 C   0  0  0  0  0  0  0  0  0  0  0  0
   -6.0742  -20.5471   22.1632 N   0  0  0  0  0  0  0  0  0  0  0  0
   -5.1614  -20.4361   23.1912 C   0  0  0  0  0  0  0  0  0  0  0  0
    2.2691  -11.5115   29.9599 C   0  0  0  0  0  0  0  0  0  0  0  0
    3.1686  -12.7070   29.3971 C   0  0  0  0  0  0  0  0  0  0  0  0
    3.9240  -13.9384   29.8039 C   0  0  0  0  0  0  0  0  0  0  0  0
    3.8340  -14.3474   31.0620 C   0  0  0  0  0  0  0  0  0  0  0  0
    3.1034  -13.5667   31.7879 N   0  0  0  0  0  0  0  0  0  0  0  0
    2.5143  -12.3156   31.1944 C   0  0  0  0  0  0  0  0  0  0  0  0
    1.2571   -8.0436   31.5988 H   0  0  0  0  0  0  0  0  0  0  0  0
   -0.1691   -8.1974   30.6892 H   0  0  0  0  0  0  0  0  0  0  0  0
    1.1896   -7.3016   30.0067 H   0  0  0  0  0  0  0  0  0  0  0  0
   -1.0344  -10.3929   27.7249 H   0  0  0  0  0  0  0  0  0  0  0  0
   -2.9271  -11.8951   27.8369 H   0  0  0  0  0  0  0  0  0  0  0  0
   -3.5318  -12.3849   29.4545 H   0  0  0  0  0  0  0  0  0  0  0  0
   -2.1407  -13.8887   27.2348 H   0  0  0  0  0  0  0  0  0  0  0  0
   -2.3754  -14.5453   29.1936 H   0  0  0  0  0  0  0  0  0  0  0  0
   -1.2986  -16.1679   28.3144 H   0  0  0  0  0  0  0  0  0  0  0  0
   -2.9878  -16.3957   28.0246 H   0  0  0  0  0  0  0  0  0  0  0  0
   -3.2027  -17.9102   25.9154 H   0  0  0  0  0  0  0  0  0  0  0  0
   -2.8909  -22.3533   23.4187 H   0  0  0  0  0  0  0  0  0  0  0  0
   -1.2508  -21.6493   23.4044 H   0  0  0  0  0  0  0  0  0  0  0  0
   -2.0125  -22.1275   24.9392 H   0  0  0  0  0  0  0  0  0  0  0  0
   -2.3580  -19.7412   21.4729 H   0  0  0  0  0  0  0  0  0  0  0  0
   -3.9786  -19.9068   19.5954 H   0  0  0  0  0  0  0  0  0  0  0  0
   -6.3725  -20.4062   20.1149 H   0  0  0  0  0  0  0  0  0  0  0  0
   -5.5580  -20.6792   24.1751 H   0  0  0  0  0  0  0  0  0  0  0  0
    3.1450  -13.0553   28.3532 H   0  0  0  0  0  0  0  0  0  0  0  0
    4.4213  -14.5481   29.0547 H   0  0  0  0  0  0  0  0  0  0  0  0
    4.2606  -15.2404   31.4831 H   0  0  0  0  0  0  0  0  0  0  0  0
    2.8495  -11.7564   32.0549 H   0  0  0  0  0  0  0  0  0  0  0  0
  1  2  1  0
  2  3  2  3
  3  4  1  0
  4  5  1  0
  5  6  2  0
  5  7  1  0
  7  8  1  0
  8  9  1  0
  9 10  1  0
 10 11  2  0
 10 12  1  0
 12 13  1  0
 13 14  2  3
 14 15  1  0
 14 16  1  0
 16 17  2  0
 17 18  1  0
 18 19  2  0
 19 20  1  0
 20 21  2  0
  2 22  1  0
 22 23  2  0
 23 24  1  0
 24 25  2  0
 25 26  1  0
 26 27  2  0
 21 16  1  0
 27 22  1  0
  1 28  1  0
  1 29  1  0
  1 30  1  0
  4 31  1  0
  7 32  1  0
  7 33  1  0
  8 34  1  0
  8 35  1  0
  9 36  1  0
  9 37  1  0
 12 38  1  0
 15 39  1  0
 15 40  1  0
 15 41  1  0
 17 42  1  0
 18 43  1  0
 19 44  1  0
 21 45  1  0
 23 46  1  0
 24 47  1  0
 25 48  1  0
 27 49  1  0
M  END
>  <Energy>  (421) 
893.02529488327502

>  <compound_id>  (421) 
19496

>  <target_id>  (421) 
1

>  <reference_id>  (421) 
48

>  <inspiration_ids>  (421) 
[56, 48]

>  <energy_score>  (421) 
677.3519460333465

>  <distance_score>  (421) 
13.995618202775486

>  <path>  (421) 
/opt/xchem-fragalysis-2/maxwin/BulkDock/SCRATCH/511016/C19496-P48/C19496-P48.minimised.mol

>  <scratch_subdir>  (421) 
/opt/xchem-fragalysis-2/maxwin/BulkDock/SCRATCH/511016/C19496-P48

>  <fragmenstein_runtime>  (421) 
26.737178087234497

>  <fragmenstein_outcome>  (421) 
too moved

>  <fragmenstein_mode>  (421) 
expansion

>  <fragmenstein_error>  (421) 


$$$$
C19496-P56
     RDKit          3D

 49 50  0  0  0  0  0  0  0  0999 V2000
   -0.3115   -8.0571   27.5682 C   0  0  0  0  0  0  0  0  0  0  0  0
   -0.6311   -9.3012   28.4078 C   0  0  0  0  0  0  0  0  0  0  0  0
   -1.1690  -10.4798   27.9415 N   0  0  0  0  0  0  0  0  0  0  0  0
   -2.3835  -10.6934   26.5780 N   0  0  0  0  0  0  0  0  0  0  0  0
   -3.0886  -12.2418   25.7231 C   0  0  0  0  0  0  0  0  0  0  0  0
   -2.6777  -13.3493   25.9951 O   0  0  0  0  0  0  0  0  0  0  0  0
   -4.7249  -12.3946   24.3830 C   0  0  0  0  0  0  0  0  0  0  0  0
   -5.9668  -13.6329   23.1792 C   0  0  0  0  0  0  0  0  0  0  0  0
   -6.6311  -15.2365   22.0293 C   0  0  0  0  0  0  0  0  0  0  0  0
   -7.6910  -15.8819   20.4150 C   0  0  0  0  0  0  0  0  0  0  0  0
   -8.2322  -14.9351   19.8731 O   0  0  0  0  0  0  0  0  0  0  0  0
   -7.8045  -17.6092   19.8179 N   0  0  0  0  0  0  0  0  0  0  0  0
   -8.7806  -18.3620   18.4128 N   0  0  0  0  0  0  0  0  0  0  0  0
   -8.8015  -19.8555   17.8343 C   0  0  0  0  0  0  0  0  0  0  0  0
   -7.7788  -20.5275   18.7066 C   0  0  0  0  0  0  0  0  0  0  0  0
   -9.5803  -20.9913   16.3361 C   0  0  0  0  0  0  0  0  0  0  0  0
   -9.4781  -22.3715   15.4527 C   0  0  0  0  0  0  0  0  0  0  0  0
   -9.8961  -22.9083   14.0975 C   0  0  0  0  0  0  0  0  0  0  0  0
  -10.4390  -22.0930   13.1795 C   0  0  0  0  0  0  0  0  0  0  0  0
  -10.6065  -20.8507   13.5833 N   0  0  0  0  0  0  0  0  0  0  0  0
  -10.1321  -20.4567   15.0196 C   0  0  0  0  0  0  0  0  0  0  0  0
   -0.6132   -8.8832   29.9712 C   0  0  0  0  0  0  0  0  0  0  0  0
   -1.2482   -9.6253   30.9911 C   0  0  0  0  0  0  0  0  0  0  0  0
   -1.5684   -9.0544   32.2446 C   0  0  0  0  0  0  0  0  0  0  0  0
   -1.2306   -7.7408   32.4859 C   0  0  0  0  0  0  0  0  0  0  0  0
   -0.6554   -6.9669   31.5569 N   0  0  0  0  0  0  0  0  0  0  0  0
   -0.3685   -7.5463   30.3542 C   0  0  0  0  0  0  0  0  0  0  0  0
   -0.9841   -7.2282   27.8194 H   0  0  0  0  0  0  0  0  0  0  0  0
    0.6987   -7.7440   27.7954 H   0  0  0  0  0  0  0  0  0  0  0  0
   -0.4265   -8.1969   26.5009 H   0  0  0  0  0  0  0  0  0  0  0  0
   -2.7726   -9.8720   26.1621 H   0  0  0  0  0  0  0  0  0  0  0  0
   -5.7200  -12.1528   24.8418 H   0  0  0  0  0  0  0  0  0  0  0  0
   -4.5770  -11.3887   24.0634 H   0  0  0  0  0  0  0  0  0  0  0  0
   -5.3327  -14.4727   23.4749 H   0  0  0  0  0  0  0  0  0  0  0  0
   -6.9066  -13.5059   23.7375 H   0  0  0  0  0  0  0  0  0  0  0  0
   -5.7299  -15.8473   21.8877 H   0  0  0  0  0  0  0  0  0  0  0  0
   -7.2222  -15.7413   22.8098 H   0  0  0  0  0  0  0  0  0  0  0  0
   -7.3426  -18.2220   20.4783 H   0  0  0  0  0  0  0  0  0  0  0  0
   -7.1765  -21.2695   18.2076 H   0  0  0  0  0  0  0  0  0  0  0  0
   -7.0089  -19.8069   19.0038 H   0  0  0  0  0  0  0  0  0  0  0  0
   -8.2762  -20.7978   19.6386 H   0  0  0  0  0  0  0  0  0  0  0  0
   -8.7961  -23.1875   15.6067 H   0  0  0  0  0  0  0  0  0  0  0  0
   -9.6931  -23.9435   13.8433 H   0  0  0  0  0  0  0  0  0  0  0  0
  -10.7217  -22.3749   12.1810 H   0  0  0  0  0  0  0  0  0  0  0  0
  -10.3316  -19.3546   15.0607 H   0  0  0  0  0  0  0  0  0  0  0  0
   -1.5834  -10.6380   30.7983 H   0  0  0  0  0  0  0  0  0  0  0  0
   -2.0640   -9.6436   33.0070 H   0  0  0  0  0  0  0  0  0  0  0  0
   -1.4327   -7.2599   33.4376 H   0  0  0  0  0  0  0  0  0  0  0  0
    0.0728   -6.8225   29.6761 H   0  0  0  0  0  0  0  0  0  0  0  0
  1  2  1  0
  2  3  2  3
  3  4  1  0
  4  5  1  0
  5  6  2  0
  5  7  1  0
  7  8  1  0
  8  9  1  0
  9 10  1  0
 10 11  2  0
 10 12  1  0
 12 13  1  0
 13 14  2  3
 14 15  1  0
 14 16  1  0
 16 17  2  0
 17 18  1  0
 18 19  2  0
 19 20  1  0
 20 21  2  0
  2 22  1  0
 22 23  2  0
 23 24  1  0
 24 25  2  0
 25 26  1  0
 26 27  2  0
 21 16  1  0
 27 22  1  0
  1 28  1  0
  1 29  1  0
  1 30  1  0
  4 31  1  0
  7 32  1  0
  7 33  1  0
  8 34  1  0
  8 35  1  0
  9 36  1  0
  9 37  1  0
 12 38  1  0
 15 39  1  0
 15 40  1  0
 15 41  1  0
 17 42  1  0
 18 43  1  0
 19 44  1  0
 21 45  1  0
 23 46  1  0
 24 47  1  0
 25 48  1  0
 27 49  1  0
M  END
>  <Energy>  (422) 
1181.3413101386168

>  <compound_id>  (422) 
19496

>  <target_id>  (422) 
1

>  <reference_id>  (422) 
56

>  <inspiration_ids>  (422) 
[56, 48]

>  <energy_score>  (422) 
965.6679612886825

>  <distance_score>  (422) 
9.69572712154089

>  <path>  (422) 
/opt/xchem-fragalysis-2/maxwin/BulkDock/SCRATCH/511016/C19496-P56/C19496-P56.minimised.mol

>  <scratch_subdir>  (422) 
/opt/xchem-fragalysis-2/maxwin/BulkDock/SCRATCH/511016/C19496-P56

>  <fragmenstein_runtime>  (422) 
14.399320840835571

>  <fragmenstein_outcome>  (422) 
too moved

>  <fragmenstein_mode>  (422) 
expansion

>  <fragmenstein_error>  (422) 


$$$$
C19496-P48
     RDKit          3D

 49 50  0  0  0  0  0  0  0  0999 V2000
    0.9279   -8.2020   30.5806 C   0  0  0  0  0  0  0  0  0  0  0  0
    1.3574   -9.6070   29.5681 C   0  0  0  0  0  0  0  0  0  0  0  0
    0.2780   -9.2131   28.7618 N   0  0  0  0  0  0  0  0  0  0  0  0
   -0.7398  -10.1017   28.6302 N   0  0  0  0  0  0  0  0  0  0  0  0
   -1.5895  -10.8186   29.6888 C   0  0  0  0  0  0  0  0  0  0  0  0
   -1.5984  -10.6729   30.8705 O   0  0  0  0  0  0  0  0  0  0  0  0
   -2.6515  -12.2597   28.8275 C   0  0  0  0  0  0  0  0  0  0  0  0
   -1.9064  -14.1304   28.2911 C   0  0  0  0  0  0  0  0  0  0  0  0
   -2.0945  -15.9612   27.5993 C   0  0  0  0  0  0  0  0  0  0  0  0
   -1.4258  -17.4596   26.5883 C   0  0  0  0  0  0  0  0  0  0  0  0
   -0.2874  -17.5908   26.7847 O   0  0  0  0  0  0  0  0  0  0  0  0
   -2.3045  -18.2438   25.8037 N   0  0  0  0  0  0  0  0  0  0  0  0
   -2.0852  -19.5403   25.0604 N   0  0  0  0  0  0  0  0  0  0  0  0
   -2.7418  -20.2661   24.1241 C   0  0  0  0  0  0  0  0  0  0  0  0
   -2.1980  -21.6958   23.9505 C   0  0  0  0  0  0  0  0  0  0  0  0
   -3.8236  -20.0799   23.0379 C   0  0  0  0  0  0  0  0  0  0  0  0
   -3.4091  -19.9262   21.6943 C   0  0  0  0  0  0  0  0  0  0  0  0
   -4.3117  -20.0418   20.6196 C   0  0  0  0  0  0  0  0  0  0  0  0
   -5.6298  -20.3361   20.9026 C   0  0  0  0  0  0  0  0  0  0  0  0
   -6.0742  -20.5471   22.1632 N   0  0  0  0  0  0  0  0  0  0  0  0
   -5.1614  -20.4361   23.1912 C   0  0  0  0  0  0  0  0  0  0  0  0
    2.2691  -11.5115   29.9599 C   0  0  0  0  0  0  0  0  0  0  0  0
    3.1686  -12.7070   29.3971 C   0  0  0  0  0  0  0  0  0  0  0  0
    3.9240  -13.9384   29.8039 C   0  0  0  0  0  0  0  0  0  0  0  0
    3.8340  -14.3474   31.0620 C   0  0  0  0  0  0  0  0  0  0  0  0
    3.1034  -13.5667   31.7879 N   0  0  0  0  0  0  0  0  0  0  0  0
    2.5143  -12.3156   31.1944 C   0  0  0  0  0  0  0  0  0  0  0  0
    1.2571   -8.0436   31.5988 H   0  0  0  0  0  0  0  0  0  0  0  0
   -0.1691   -8.1974   30.6892 H   0  0  0  0  0  0  0  0  0  0  0  0
    1.1896   -7.3016   30.0067 H   0  0  0  0  0  0  0  0  0  0  0  0
   -1.0344  -10.3929   27.7249 H   0  0  0  0  0  0  0  0  0  0  0  0
   -2.9271  -11.8951   27.8369 H   0  0  0  0  0  0  0  0  0  0  0  0
   -3.5318  -12.3849   29.4545 H   0  0  0  0  0  0  0  0  0  0  0  0
   -2.1407  -13.8887   27.2348 H   0  0  0  0  0  0  0  0  0  0  0  0
   -2.3754  -14.5453   29.1936 H   0  0  0  0  0  0  0  0  0  0  0  0
   -1.2986  -16.1679   28.3144 H   0  0  0  0  0  0  0  0  0  0  0  0
   -2.9878  -16.3957   28.0246 H   0  0  0  0  0  0  0  0  0  0  0  0
   -3.2027  -17.9102   25.9154 H   0  0  0  0  0  0  0  0  0  0  0  0
   -2.8909  -22.3533   23.4187 H   0  0  0  0  0  0  0  0  0  0  0  0
   -1.2508  -21.6493   23.4044 H   0  0  0  0  0  0  0  0  0  0  0  0
   -2.0125  -22.1275   24.9392 H   0  0  0  0  0  0  0  0  0  0  0  0
   -2.3580  -19.7412   21.4729 H   0  0  0  0  0  0  0  0  0  0  0  0
   -3.9786  -19.9068   19.5954 H   0  0  0  0  0  0  0  0  0  0  0  0
   -6.3725  -20.4062   20.1149 H   0  0  0  0  0  0  0  0  0  0  0  0
   -5.5580  -20.6792   24.1751 H   0  0  0  0  0  0  0  0  0  0  0  0
    3.1450  -13.0553   28.3532 H   0  0  0  0  0  0  0  0  0  0  0  0
    4.4213  -14.5481   29.0547 H   0  0  0  0  0  0  0  0  0  0  0  0
    4.2606  -15.2404   31.4831 H   0  0  0  0  0  0  0  0  0  0  0  0
    2.8495  -11.7564   32.0549 H   0  0  0  0  0  0  0  0  0  0  0  0
  1  2  1  0
  2  3  2  3
  3  4  1  0
  4  5  1  0
  5  6  2  0
  5  7  1  0
  7  8  1  0
  8  9  1  0
  9 10  1  0
 10 11  2  0
 10 12  1  0
 12 13  1  0
 13 14  2  3
 14 15  1  0
 14 16  1  0
 16 17  2  0
 17 18  1  0
 18 19  2  0
 19 20  1  0
 20 21  2  0
  2 22  1  0
 22 23  2  0
 23 24  1  0
 24 25  2  0
 25 26  1  0
 26 27  2  0
 21 16  1  0
 27 22  1  0
  1 28  1  0
  1 29  1  0
  1 30  1  0
  4 31  1  0
  7 32  1  0
  7 33  1  0
  8 34  1  0
  8 35  1  0
  9 36  1  0
  9 37  1  0
 12 38  1  0
 15 39  1  0
 15 40  1  0
 15 41  1  0
 17 42  1  0
 18 43  1  0
 19 44  1  0
 21 45  1  0
 23 46  1  0
 24 47  1  0
 25 48  1  0
 27 49  1  0
M  END
>  <Energy>  (423) 
893.02529488327502

>  <compound_id>  (423) 
19496

>  <target_id>  (423) 
1

>  <reference_id>  (423) 
48

>  <inspiration_ids>  (423) 
[56, 48]

>  <energy_score>  (423) 
677.3519460333465

>  <distance_score>  (423) 
13.995618202775486

>  <path>  (423) 
/opt/xchem-fragalysis-2/maxwin/BulkDock/SCRATCH/511016/C19496-P48/C19496-P48.minimised.mol

>  <scratch_subdir>  (423) 
/opt/xchem-fragalysis-2/maxwin/BulkDock/SCRATCH/511016/C19496-P48

>  <fragmenstein_runtime>  (423) 
31.8661208152771

>  <fragmenstein_outcome>  (423) 
too moved

>  <fragmenstein_mode>  (423) 
expansion

>  <fragmenstein_error>  (423) 


$$$$
C19501-P56
     RDKit          3D

 43 44  0  0  0  0  0  0  0  0999 V2000
   -9.7448  -22.9452   13.9786 C   0  0  0  0  0  0  0  0  0  0  0  0
   -9.4311  -22.4049   15.2721 O   0  0  0  0  0  0  0  0  0  0  0  0
   -7.9459  -22.3051   15.5178 C   0  0  0  0  0  0  0  0  0  0  0  0
   -7.0839  -21.3408   17.3215 C   0  0  0  0  0  0  0  0  0  0  0  0
   -7.0550  -19.8168   18.7248 C   0  0  0  0  0  0  0  0  0  0  0  0
   -5.7528  -18.6368   19.5462 N   0  0  0  0  0  0  0  0  0  0  0  0
   -5.7468  -17.7754   21.1712 C   0  0  0  0  0  0  0  0  0  0  0  0
   -6.6116  -17.9511   21.9983 O   0  0  0  0  0  0  0  0  0  0  0  0
   -4.2607  -16.5383   21.8875 C   0  0  0  0  0  0  0  0  0  0  0  0
   -3.3444  -15.8847   23.3854 C   0  0  0  0  0  0  0  0  0  0  0  0
   -3.0005  -15.0651   24.2817 C   0  0  0  0  0  0  0  0  0  0  0  0
   -2.3720  -14.1000   25.6805 C   0  0  0  0  0  0  0  0  0  0  0  0
   -2.0358  -14.7596   26.6444 O   0  0  0  0  0  0  0  0  0  0  0  0
   -2.4323  -12.5398   25.5476 O   0  0  0  0  0  0  0  0  0  0  0  0
   -1.9918  -10.7949   26.0203 C   0  0  0  0  0  0  0  0  0  0  0  0
   -4.1630  -14.5293   23.6927 C   0  0  0  0  0  0  0  0  0  0  0  0
   -5.2357  -15.0864   23.6609 C   0  0  0  0  0  0  0  0  0  0  0  0
   -4.4874  -15.7080   22.7971 N   0  0  0  0  0  0  0  0  0  0  0  0
   -8.1030  -20.1780   19.7426 C   0  0  0  0  0  0  0  0  0  0  0  0
   -9.3036  -19.4713   19.8317 C   0  0  0  0  0  0  0  0  0  0  0  0
  -10.3374  -19.9681   20.6197 C   0  0  0  0  0  0  0  0  0  0  0  0
  -10.1474  -21.1836   21.2498 C   0  0  0  0  0  0  0  0  0  0  0  0
   -8.9885  -21.8720   21.2106 N   0  0  0  0  0  0  0  0  0  0  0  0
   -7.9638  -21.2994   20.5349 C   0  0  0  0  0  0  0  0  0  0  0  0
   -9.7227  -24.0365   14.0283 H   0  0  0  0  0  0  0  0  0  0  0  0
  -10.7480  -22.6585   13.6725 H   0  0  0  0  0  0  0  0  0  0  0  0
   -9.0847  -22.5755   13.1897 H   0  0  0  0  0  0  0  0  0  0  0  0
   -7.6590  -23.3126   15.5327 H   0  0  0  0  0  0  0  0  0  0  0  0
   -7.6415  -21.9675   14.4880 H   0  0  0  0  0  0  0  0  0  0  0  0
   -6.8504  -22.0863   18.1382 H   0  0  0  0  0  0  0  0  0  0  0  0
   -5.9504  -21.3787   17.2293 H   0  0  0  0  0  0  0  0  0  0  0  0
   -7.5291  -19.0053   18.1506 H   0  0  0  0  0  0  0  0  0  0  0  0
   -4.9911  -18.2819   18.9837 H   0  0  0  0  0  0  0  0  0  0  0  0
   -2.9235  -16.4348   24.4123 H   0  0  0  0  0  0  0  0  0  0  0  0
   -2.1652  -10.0000   25.2438 H   0  0  0  0  0  0  0  0  0  0  0  0
   -2.5872  -10.9004   26.8766 H   0  0  0  0  0  0  0  0  0  0  0  0
   -0.9517  -10.5242   26.4159 H   0  0  0  0  0  0  0  0  0  0  0  0
   -4.6478  -13.4573   23.8550 H   0  0  0  0  0  0  0  0  0  0  0  0
   -6.2959  -14.8989   23.8127 H   0  0  0  0  0  0  0  0  0  0  0  0
   -9.4473  -18.5471   19.2765 H   0  0  0  0  0  0  0  0  0  0  0  0
  -11.2833  -19.4456   20.6993 H   0  0  0  0  0  0  0  0  0  0  0  0
  -10.9369  -21.6352   21.8433 H   0  0  0  0  0  0  0  0  0  0  0  0
   -7.0190  -21.8353   20.5903 H   0  0  0  0  0  0  0  0  0  0  0  0
  1  2  1  0
  2  3  1  0
  3  4  1  0
  4  5  1  0
  5  6  1  0
  6  7  1  0
  7  8  2  0
  7  9  1  0
  9 10  2  0
 10 11  1  0
 11 12  1  0
 12 13  2  0
 12 14  1  0
 14 15  1  0
 11 16  2  0
 16 17  1  0
 17 18  2  0
  5 19  1  0
 19 20  2  0
 20 21  1  0
 21 22  2  0
 22 23  1  0
 23 24  2  0
 18  9  1  0
 24 19  1  0
  1 25  1  0
  1 26  1  0
  1 27  1  0
  3 28  1  0
  3 29  1  0
  4 30  1  0
  4 31  1  0
  5 32  1  0
  6 33  1  0
 10 34  1  0
 15 35  1  0
 15 36  1  0
 15 37  1  0
 16 38  1  0
 17 39  1  0
 20 40  1  0
 21 41  1  0
 22 42  1  0
 24 43  1  0
M  END
>  <Energy>  (424) 
1290.5542787715137

>  <compound_id>  (424) 
19501

>  <target_id>  (424) 
1

>  <reference_id>  (424) 
56

>  <inspiration_ids>  (424) 
[56, 48]

>  <energy_score>  (424) 
1206.5202139619146

>  <distance_score>  (424) 
11.316105600853483

>  <path>  (424) 
/opt/xchem-fragalysis-2/maxwin/BulkDock/SCRATCH/511016/C19501-P56/C19501-P56.minimised.mol

>  <scratch_subdir>  (424) 
/opt/xchem-fragalysis-2/maxwin/BulkDock/SCRATCH/511016/C19501-P56

>  <fragmenstein_runtime>  (424) 
24.562219619750977

>  <fragmenstein_outcome>  (424) 
too moved

>  <fragmenstein_mode>  (424) 
expansion

>  <fragmenstein_error>  (424) 


$$$$
C19501-P48
     RDKit          3D

 43 44  0  0  0  0  0  0  0  0999 V2000
  -10.0702  -21.9312   21.5223 C   0  0  0  0  0  0  0  0  0  0  0  0
   -8.7852  -21.4165   21.2102 O   0  0  0  0  0  0  0  0  0  0  0  0
   -8.5604  -20.1651   21.8754 C   0  0  0  0  0  0  0  0  0  0  0  0
   -7.0424  -19.8977   22.0262 C   0  0  0  0  0  0  0  0  0  0  0  0
   -6.2515  -18.6932   21.2700 C   0  0  0  0  0  0  0  0  0  0  0  0
   -5.6727  -17.6680   22.3183 N   0  0  0  0  0  0  0  0  0  0  0  0
   -4.2937  -16.5190   22.2143 C   0  0  0  0  0  0  0  0  0  0  0  0
   -3.6483  -16.3282   21.2049 O   0  0  0  0  0  0  0  0  0  0  0  0
   -3.6728  -15.5821   23.9786 C   0  0  0  0  0  0  0  0  0  0  0  0
   -2.6673  -14.8406   24.4446 C   0  0  0  0  0  0  0  0  0  0  0  0
   -2.3423  -14.3576   26.1137 C   0  0  0  0  0  0  0  0  0  0  0  0
   -2.2428  -12.9242   26.3815 C   0  0  0  0  0  0  0  0  0  0  0  0
   -2.1167  -12.0460   25.5763 O   0  0  0  0  0  0  0  0  0  0  0  0
   -2.2833  -12.8660   27.6818 O   0  0  0  0  0  0  0  0  0  0  0  0
   -2.9653  -12.1260   28.8134 C   0  0  0  0  0  0  0  0  0  0  0  0
   -2.1028  -15.3426   27.1766 C   0  0  0  0  0  0  0  0  0  0  0  0
   -2.3119  -16.5415   26.5714 C   0  0  0  0  0  0  0  0  0  0  0  0
   -3.0461  -16.4425   25.2175 N   0  0  0  0  0  0  0  0  0  0  0  0
   -7.1540  -18.4067   20.1496 C   0  0  0  0  0  0  0  0  0  0  0  0
   -8.0389  -17.3681   20.1842 C   0  0  0  0  0  0  0  0  0  0  0  0
   -9.0080  -17.2434   19.2314 C   0  0  0  0  0  0  0  0  0  0  0  0
   -9.0748  -18.2660   18.3491 C   0  0  0  0  0  0  0  0  0  0  0  0
   -8.3819  -19.4108   18.3919 N   0  0  0  0  0  0  0  0  0  0  0  0
   -7.3630  -19.4230   19.2281 C   0  0  0  0  0  0  0  0  0  0  0  0
  -10.1143  -22.9632   21.1759 H   0  0  0  0  0  0  0  0  0  0  0  0
  -10.8555  -21.3310   21.0584 H   0  0  0  0  0  0  0  0  0  0  0  0
  -10.2288  -21.9616   22.6059 H   0  0  0  0  0  0  0  0  0  0  0  0
   -9.1459  -19.3817   21.3966 H   0  0  0  0  0  0  0  0  0  0  0  0
   -8.9575  -20.2441   22.8968 H   0  0  0  0  0  0  0  0  0  0  0  0
   -6.5238  -20.8334   21.7717 H   0  0  0  0  0  0  0  0  0  0  0  0
   -6.9043  -19.7424   23.1039 H   0  0  0  0  0  0  0  0  0  0  0  0
   -5.3880  -19.1282   20.7583 H   0  0  0  0  0  0  0  0  0  0  0  0
   -6.0997  -17.5899   23.2285 H   0  0  0  0  0  0  0  0  0  0  0  0
   -1.7664  -14.7014   23.8184 H   0  0  0  0  0  0  0  0  0  0  0  0
   -2.4026  -11.3255   29.2697 H   0  0  0  0  0  0  0  0  0  0  0  0
   -3.9887  -11.9631   28.5622 H   0  0  0  0  0  0  0  0  0  0  0  0
   -2.9949  -12.8540   29.6211 H   0  0  0  0  0  0  0  0  0  0  0  0
   -1.7968  -15.1730   28.1918 H   0  0  0  0  0  0  0  0  0  0  0  0
   -2.1780  -17.5376   26.9639 H   0  0  0  0  0  0  0  0  0  0  0  0
   -7.9298  -16.6472   20.9710 H   0  0  0  0  0  0  0  0  0  0  0  0
   -9.6394  -16.3683   19.1586 H   0  0  0  0  0  0  0  0  0  0  0  0
   -9.6676  -18.1436   17.4761 H   0  0  0  0  0  0  0  0  0  0  0  0
   -6.7627  -20.3289   19.2180 H   0  0  0  0  0  0  0  0  0  0  0  0
  1  2  1  0
  2  3  1  0
  3  4  1  0
  4  5  1  0
  5  6  1  0
  6  7  1  0
  7  8  2  0
  7  9  1  0
  9 10  2  0
 10 11  1  0
 11 12  1  0
 12 13  2  0
 12 14  1  0
 14 15  1  0
 11 16  2  0
 16 17  1  0
 17 18  2  0
  5 19  1  0
 19 20  2  0
 20 21  1  0
 21 22  2  0
 22 23  1  0
 23 24  2  0
 18  9  1  0
 24 19  1  0
  1 25  1  0
  1 26  1  0
  1 27  1  0
  3 28  1  0
  3 29  1  0
  4 30  1  0
  4 31  1  0
  5 32  1  0
  6 33  1  0
 10 34  1  0
 15 35  1  0
 15 36  1  0
 15 37  1  0
 16 38  1  0
 17 39  1  0
 20 40  1  0
 21 41  1  0
 22 42  1  0
 24 43  1  0
M  END
>  <Energy>  (425) 
467.96161854494574

>  <compound_id>  (425) 
19501

>  <target_id>  (425) 
1

>  <reference_id>  (425) 
48

>  <inspiration_ids>  (425) 
[56, 48]

>  <energy_score>  (425) 
383.9275537353488

>  <distance_score>  (425) 
11.787537582961452

>  <path>  (425) 
/opt/xchem-fragalysis-2/maxwin/BulkDock/SCRATCH/511016/C19501-P48/C19501-P48.minimised.mol

>  <scratch_subdir>  (425) 
/opt/xchem-fragalysis-2/maxwin/BulkDock/SCRATCH/511016/C19501-P48

>  <fragmenstein_runtime>  (425) 
15.027343273162842

>  <fragmenstein_outcome>  (425) 
too moved

>  <fragmenstein_mode>  (425) 
expansion

>  <fragmenstein_error>  (425) 


$$$$
C19504-P56
     RDKit          3D

 42 43  0  0  0  0  0  0  0  0999 V2000
  -10.0801  -16.4657   15.8522 C   0  0  0  0  0  0  0  0  0  0  0  0
   -9.7979  -15.0701   15.8950 O   0  0  0  0  0  0  0  0  0  0  0  0
   -8.8573  -14.7517   16.9408 C   0  0  0  0  0  0  0  0  0  0  0  0
   -8.5653  -13.2126   16.9827 C   0  0  0  0  0  0  0  0  0  0  0  0
   -7.0115  -12.6819   16.9328 C   0  0  0  0  0  0  0  0  0  0  0  0
   -6.5118  -12.3378   18.4886 N   0  0  0  0  0  0  0  0  0  0  0  0
   -7.1239  -12.7666   19.9394 C   0  0  0  0  0  0  0  0  0  0  0  0
   -8.0410  -13.5191   20.0584 O   0  0  0  0  0  0  0  0  0  0  0  0
   -6.6113  -11.9977   21.8026 C   0  0  0  0  0  0  0  0  0  0  0  0
   -6.1986  -12.4883   23.0114 C   0  0  0  0  0  0  0  0  0  0  0  0
   -5.9984  -11.8254   24.3027 C   0  0  0  0  0  0  0  0  0  0  0  0
   -4.3287  -11.7701   24.4505 C   0  0  0  0  0  0  0  0  0  0  0  0
   -3.4242  -10.4016   23.5931 N   0  0  0  0  0  0  0  0  0  0  0  0
   -6.9722  -10.9192   24.9259 C   0  0  0  0  0  0  0  0  0  0  0  0
   -7.7879  -10.4199   23.9552 C   0  0  0  0  0  0  0  0  0  0  0  0
   -7.7153  -11.1711   22.6619 N   0  0  0  0  0  0  0  0  0  0  0  0
   -6.4176  -13.5255   15.7554 C   0  0  0  0  0  0  0  0  0  0  0  0
   -7.0761  -13.4312   14.4903 C   0  0  0  0  0  0  0  0  0  0  0  0
   -6.8642  -14.3334   13.4357 C   0  0  0  0  0  0  0  0  0  0  0  0
   -5.9249  -15.3137   13.6203 C   0  0  0  0  0  0  0  0  0  0  0  0
   -5.2167  -15.4161   14.7611 N   0  0  0  0  0  0  0  0  0  0  0  0
   -5.4963  -14.5529   15.7890 C   0  0  0  0  0  0  0  0  0  0  0  0
  -10.5124  -16.7941   16.8013 H   0  0  0  0  0  0  0  0  0  0  0  0
  -10.8015  -16.6489   15.0518 H   0  0  0  0  0  0  0  0  0  0  0  0
   -9.1685  -17.0180   15.6383 H   0  0  0  0  0  0  0  0  0  0  0  0
   -9.2951  -15.0504   17.9003 H   0  0  0  0  0  0  0  0  0  0  0  0
   -7.9594  -15.3460   16.7751 H   0  0  0  0  0  0  0  0  0  0  0  0
   -9.1041  -12.7410   16.1500 H   0  0  0  0  0  0  0  0  0  0  0  0
   -9.0406  -12.7893   17.8746 H   0  0  0  0  0  0  0  0  0  0  0  0
   -7.0505  -11.6539   16.5457 H   0  0  0  0  0  0  0  0  0  0  0  0
   -5.7138  -11.7821   18.6416 H   0  0  0  0  0  0  0  0  0  0  0  0
   -5.7446  -13.4395   23.1974 H   0  0  0  0  0  0  0  0  0  0  0  0
   -3.7142  -12.1143   25.3350 H   0  0  0  0  0  0  0  0  0  0  0  0
   -4.0751  -12.7250   24.1689 H   0  0  0  0  0  0  0  0  0  0  0  0
   -3.4612   -9.4588   24.0105 H   0  0  0  0  0  0  0  0  0  0  0  0
   -3.6576  -10.5042   22.5597 H   0  0  0  0  0  0  0  0  0  0  0  0
   -6.9908  -10.5236   25.9311 H   0  0  0  0  0  0  0  0  0  0  0  0
   -8.5968   -9.7122   24.0599 H   0  0  0  0  0  0  0  0  0  0  0  0
   -7.8365  -12.6650   14.3360 H   0  0  0  0  0  0  0  0  0  0  0  0
   -7.4233  -14.2563   12.5112 H   0  0  0  0  0  0  0  0  0  0  0  0
   -5.6984  -16.0487   12.8553 H   0  0  0  0  0  0  0  0  0  0  0  0
   -4.9371  -14.7940   16.6746 H   0  0  0  0  0  0  0  0  0  0  0  0
  1  2  1  0
  2  3  1  0
  3  4  1  0
  4  5  1  0
  5  6  1  0
  6  7  1  0
  7  8  2  0
  7  9  1  0
  9 10  2  0
 10 11  1  0
 11 12  1  0
 12 13  1  0
 11 14  2  0
 14 15  1  0
 15 16  2  0
  5 17  1  0
 17 18  2  0
 18 19  1  0
 19 20  2  0
 20 21  1  0
 21 22  2  0
 16  9  1  0
 22 17  1  0
  1 23  1  0
  1 24  1  0
  1 25  1  0
  3 26  1  0
  3 27  1  0
  4 28  1  0
  4 29  1  0
  5 30  1  0
  6 31  1  0
 10 32  1  0
 12 33  1  0
 12 34  1  0
 13 35  1  0
 13 36  1  0
 14 37  1  0
 15 38  1  0
 18 39  1  0
 19 40  1  0
 20 41  1  0
 22 42  1  0
M  END
>  <Energy>  (426) 
453.54210322930555

>  <compound_id>  (426) 
19504

>  <target_id>  (426) 
1

>  <reference_id>  (426) 
56

>  <inspiration_ids>  (426) 
[56, 48]

>  <energy_score>  (426) 
385.02504822150945

>  <distance_score>  (426) 
12.745881827770576

>  <path>  (426) 
/opt/xchem-fragalysis-2/maxwin/BulkDock/SCRATCH/511016/C19504-P56/C19504-P56.minimised.mol

>  <scratch_subdir>  (426) 
/opt/xchem-fragalysis-2/maxwin/BulkDock/SCRATCH/511016/C19504-P56

>  <fragmenstein_runtime>  (426) 
15.122498273849487

>  <fragmenstein_outcome>  (426) 
too moved

>  <fragmenstein_mode>  (426) 
expansion

>  <fragmenstein_error>  (426) 


$$$$
C19504-P48
     RDKit          3D

 42 43  0  0  0  0  0  0  0  0999 V2000
  -14.4429  -18.4829   17.3326 C   0  0  0  0  0  0  0  0  0  0  0  0
  -13.6036  -17.7326   18.2058 O   0  0  0  0  0  0  0  0  0  0  0  0
  -13.3288  -16.4295   17.6740 C   0  0  0  0  0  0  0  0  0  0  0  0
  -12.7438  -15.5096   18.7819 C   0  0  0  0  0  0  0  0  0  0  0  0
  -12.1824  -14.0850   18.3244 C   0  0  0  0  0  0  0  0  0  0  0  0
  -11.7225  -13.2641   19.5336 N   0  0  0  0  0  0  0  0  0  0  0  0
  -11.5720  -11.7988   19.7152 C   0  0  0  0  0  0  0  0  0  0  0  0
  -11.6980  -10.8954   18.9287 O   0  0  0  0  0  0  0  0  0  0  0  0
  -11.2993  -11.2938   21.2426 C   0  0  0  0  0  0  0  0  0  0  0  0
  -10.4917  -10.1654   21.6228 C   0  0  0  0  0  0  0  0  0  0  0  0
  -10.3044   -9.7664   22.9996 C   0  0  0  0  0  0  0  0  0  0  0  0
   -9.4165   -8.6017   23.4647 C   0  0  0  0  0  0  0  0  0  0  0  0
   -8.5656   -8.8448   24.6380 N   0  0  0  0  0  0  0  0  0  0  0  0
  -11.1217  -10.4000   23.9268 C   0  0  0  0  0  0  0  0  0  0  0  0
  -11.9811  -11.3955   23.4719 C   0  0  0  0  0  0  0  0  0  0  0  0
  -12.0433  -11.9018   22.1986 N   0  0  0  0  0  0  0  0  0  0  0  0
  -11.2359  -14.4460   17.1534 C   0  0  0  0  0  0  0  0  0  0  0  0
  -10.1281  -15.2932   17.3004 C   0  0  0  0  0  0  0  0  0  0  0  0
   -9.5939  -15.9657   16.1901 C   0  0  0  0  0  0  0  0  0  0  0  0
  -10.1697  -15.7733   14.9448 C   0  0  0  0  0  0  0  0  0  0  0  0
  -11.2150  -14.9488   14.7397 N   0  0  0  0  0  0  0  0  0  0  0  0
  -11.7018  -14.2971   15.8343 C   0  0  0  0  0  0  0  0  0  0  0  0
  -15.4670  -18.1030   17.4044 H   0  0  0  0  0  0  0  0  0  0  0  0
  -14.1112  -18.4120   16.2943 H   0  0  0  0  0  0  0  0  0  0  0  0
  -14.4436  -19.5262   17.6569 H   0  0  0  0  0  0  0  0  0  0  0  0
  -12.6399  -16.5840   16.8436 H   0  0  0  0  0  0  0  0  0  0  0  0
  -14.2511  -15.9765   17.2911 H   0  0  0  0  0  0  0  0  0  0  0  0
  -11.9575  -16.0631   19.3123 H   0  0  0  0  0  0  0  0  0  0  0  0
  -13.5211  -15.3455   19.5403 H   0  0  0  0  0  0  0  0  0  0  0  0
  -13.0157  -13.4992   17.9166 H   0  0  0  0  0  0  0  0  0  0  0  0
  -11.4578  -13.7381   20.3997 H   0  0  0  0  0  0  0  0  0  0  0  0
  -10.0119   -9.5995   20.8277 H   0  0  0  0  0  0  0  0  0  0  0  0
   -8.7845   -8.2788   22.6324 H   0  0  0  0  0  0  0  0  0  0  0  0
  -10.0791   -7.7572   23.6888 H   0  0  0  0  0  0  0  0  0  0  0  0
   -7.8350   -9.5174   24.3912 H   0  0  0  0  0  0  0  0  0  0  0  0
   -9.1007   -9.2580   25.3952 H   0  0  0  0  0  0  0  0  0  0  0  0
  -11.1445  -10.1078   24.9708 H   0  0  0  0  0  0  0  0  0  0  0  0
  -12.6805  -11.8606   24.1643 H   0  0  0  0  0  0  0  0  0  0  0  0
   -9.7266  -15.4890   18.2932 H   0  0  0  0  0  0  0  0  0  0  0  0
   -8.7509  -16.6341   16.3131 H   0  0  0  0  0  0  0  0  0  0  0  0
   -9.7883  -16.2754   14.0618 H   0  0  0  0  0  0  0  0  0  0  0  0
  -12.5749  -13.6819   15.6236 H   0  0  0  0  0  0  0  0  0  0  0  0
  1  2  1  0
  2  3  1  0
  3  4  1  0
  4  5  1  0
  5  6  1  0
  6  7  1  0
  7  8  2  0
  7  9  1  0
  9 10  2  0
 10 11  1  0
 11 12  1  0
 12 13  1  0
 11 14  2  0
 14 15  1  0
 15 16  2  0
  5 17  1  0
 17 18  2  0
 18 19  1  0
 19 20  2  0
 20 21  1  0
 21 22  2  0
 16  9  1  0
 22 17  1  0
  1 23  1  0
  1 24  1  0
  1 25  1  0
  3 26  1  0
  3 27  1  0
  4 28  1  0
  4 29  1  0
  5 30  1  0
  6 31  1  0
 10 32  1  0
 12 33  1  0
 12 34  1  0
 13 35  1  0
 13 36  1  0
 14 37  1  0
 15 38  1  0
 18 39  1  0
 19 40  1  0
 20 41  1  0
 22 42  1  0
M  END
>  <Energy>  (427) 
90.657760925941275

>  <compound_id>  (427) 
19504

>  <target_id>  (427) 
1

>  <reference_id>  (427) 
48

>  <inspiration_ids>  (427) 
[56, 48]

>  <energy_score>  (427) 
22.14070591814999

>  <distance_score>  (427) 
13.363746443364683

>  <path>  (427) 
/opt/xchem-fragalysis-2/maxwin/BulkDock/SCRATCH/511016/C19504-P48/C19504-P48.minimised.mol

>  <scratch_subdir>  (427) 
/opt/xchem-fragalysis-2/maxwin/BulkDock/SCRATCH/511016/C19504-P48

>  <fragmenstein_runtime>  (427) 
16.452721118927002

>  <fragmenstein_outcome>  (427) 
too moved

>  <fragmenstein_mode>  (427) 
expansion

>  <fragmenstein_error>  (427) 


$$$$
C19506-P56
     RDKit          3D

 37 38  0  0  0  0  0  0  0  0999 V2000
   -5.0695  -13.2085   28.9137 C   0  0  0  0  0  0  0  0  0  0  0  0
   -4.8760  -14.6013   28.7222 O   0  0  0  0  0  0  0  0  0  0  0  0
   -4.1167  -14.8913   27.5544 C   0  0  0  0  0  0  0  0  0  0  0  0
   -4.7277  -16.1095   26.8084 C   0  0  0  0  0  0  0  0  0  0  0  0
   -5.5434  -15.7628   25.4688 C   0  0  0  0  0  0  0  0  0  0  0  0
   -6.4162  -16.9008   24.7612 N   0  0  0  0  0  0  0  0  0  0  0  0
   -6.2454  -17.6726   23.2015 C   0  0  0  0  0  0  0  0  0  0  0  0
   -5.3424  -17.5216   22.4054 O   0  0  0  0  0  0  0  0  0  0  0  0
   -7.2686  -18.5152   22.6025 C   0  0  0  0  0  0  0  0  0  0  0  0
   -6.8105  -19.6408   22.1251 C   0  0  0  0  0  0  0  0  0  0  0  0
   -6.1293  -19.7332   20.7318 C   0  0  0  0  0  0  0  0  0  0  0  0
   -6.1307  -18.7984   19.8119 C   0  0  0  0  0  0  0  0  0  0  0  0
   -5.5468  -18.8629   18.6213 F   0  0  0  0  0  0  0  0  0  0  0  0
   -6.7385  -17.7805   20.3837 C   0  0  0  0  0  0  0  0  0  0  0  0
   -7.5751  -17.7447   21.5485 N   0  0  0  0  0  0  0  0  0  0  0  0
   -6.5473  -14.6582   25.9265 C   0  0  0  0  0  0  0  0  0  0  0  0
   -6.5694  -13.3958   25.3210 C   0  0  0  0  0  0  0  0  0  0  0  0
   -7.3764  -12.3797   25.8409 C   0  0  0  0  0  0  0  0  0  0  0  0
   -8.1261  -12.6400   26.9719 C   0  0  0  0  0  0  0  0  0  0  0  0
   -8.1686  -13.8489   27.5653 N   0  0  0  0  0  0  0  0  0  0  0  0
   -7.3841  -14.8187   27.0349 C   0  0  0  0  0  0  0  0  0  0  0  0
   -5.4018  -12.7386   27.9903 H   0  0  0  0  0  0  0  0  0  0  0  0
   -5.8424  -13.0569   29.6706 H   0  0  0  0  0  0  0  0  0  0  0  0
   -4.1376  -12.7571   29.2534 H   0  0  0  0  0  0  0  0  0  0  0  0
   -3.1131  -15.1668   27.8956 H   0  0  0  0  0  0  0  0  0  0  0  0
   -4.0330  -14.0427   26.8681 H   0  0  0  0  0  0  0  0  0  0  0  0
   -5.3651  -16.6939   27.4833 H   0  0  0  0  0  0  0  0  0  0  0  0
   -3.8789  -16.7583   26.5823 H   0  0  0  0  0  0  0  0  0  0  0  0
   -4.9003  -15.2392   24.7610 H   0  0  0  0  0  0  0  0  0  0  0  0
   -7.1713  -17.2579   25.2108 H   0  0  0  0  0  0  0  0  0  0  0  0
   -6.6293  -20.3645   22.9269 H   0  0  0  0  0  0  0  0  0  0  0  0
   -5.4108  -20.5275   20.5215 H   0  0  0  0  0  0  0  0  0  0  0  0
   -6.7311  -16.8676   19.8772 H   0  0  0  0  0  0  0  0  0  0  0  0
   -5.9436  -13.1808   24.4593 H   0  0  0  0  0  0  0  0  0  0  0  0
   -7.3982  -11.3924   25.3916 H   0  0  0  0  0  0  0  0  0  0  0  0
   -8.7336  -11.8672   27.4341 H   0  0  0  0  0  0  0  0  0  0  0  0
   -7.4246  -15.7546   27.5850 H   0  0  0  0  0  0  0  0  0  0  0  0
  1  2  1  0
  2  3  1  0
  3  4  1  0
  4  5  1  0
  5  6  1  0
  6  7  1  0
  7  8  2  0
  7  9  1  0
  9 10  2  0
 10 11  1  0
 11 12  2  0
 12 13  1  0
 12 14  1  0
 14 15  2  0
  5 16  1  0
 16 17  2  0
 17 18  1  0
 18 19  2  0
 19 20  1  0
 20 21  2  0
 15  9  1  0
 21 16  1  0
  1 22  1  0
  1 23  1  0
  1 24  1  0
  3 25  1  0
  3 26  1  0
  4 27  1  0
  4 28  1  0
  5 29  1  0
  6 30  1  0
 10 31  1  0
 11 32  1  0
 14 33  1  0
 17 34  1  0
 18 35  1  0
 19 36  1  0
 21 37  1  0
M  END
>  <Energy>  (428) 
247.61838802026176

>  <compound_id>  (428) 
19506

>  <target_id>  (428) 
1

>  <reference_id>  (428) 
56

>  <inspiration_ids>  (428) 
[56, 48]

>  <energy_score>  (428) 
163.65162067675078

>  <distance_score>  (428) 
13.827218424497453

>  <path>  (428) 
/opt/xchem-fragalysis-2/maxwin/BulkDock/SCRATCH/511016/C19506-P56/C19506-P56.minimised.mol

>  <scratch_subdir>  (428) 
/opt/xchem-fragalysis-2/maxwin/BulkDock/SCRATCH/511016/C19506-P56

>  <fragmenstein_runtime>  (428) 
11.45576810836792

>  <fragmenstein_outcome>  (428) 
too moved

>  <fragmenstein_mode>  (428) 
expansion

>  <fragmenstein_error>  (428) 


$$$$
C19506-P48
     RDKit          3D

 37 38  0  0  0  0  0  0  0  0999 V2000
   -0.6280   -7.2732   32.0459 C   0  0  0  0  0  0  0  0  0  0  0  0
   -1.8980   -7.5262   31.4609 O   0  0  0  0  0  0  0  0  0  0  0  0
   -1.8769   -7.3531   30.0387 C   0  0  0  0  0  0  0  0  0  0  0  0
   -3.5049   -7.4695   29.2759 C   0  0  0  0  0  0  0  0  0  0  0  0
   -5.4976   -7.7576   29.0377 C   0  0  0  0  0  0  0  0  0  0  0  0
   -6.6970   -9.1713   28.6379 N   0  0  0  0  0  0  0  0  0  0  0  0
   -7.2772   -9.6769   27.2327 C   0  0  0  0  0  0  0  0  0  0  0  0
   -7.1445   -9.2115   26.1121 O   0  0  0  0  0  0  0  0  0  0  0  0
   -8.0703  -11.0567   27.1545 C   0  0  0  0  0  0  0  0  0  0  0  0
   -7.3414  -12.2651   27.1667 C   0  0  0  0  0  0  0  0  0  0  0  0
   -7.8441  -13.4656   26.5793 C   0  0  0  0  0  0  0  0  0  0  0  0
   -9.0805  -13.4626   25.9612 C   0  0  0  0  0  0  0  0  0  0  0  0
   -9.6005  -14.5907   25.4262 F   0  0  0  0  0  0  0  0  0  0  0  0
   -9.7397  -12.2456   25.9146 C   0  0  0  0  0  0  0  0  0  0  0  0
   -9.2686  -11.0656   26.4655 N   0  0  0  0  0  0  0  0  0  0  0  0
   -6.3761   -5.9444   29.3988 C   0  0  0  0  0  0  0  0  0  0  0  0
   -6.5481   -4.8348   28.4874 C   0  0  0  0  0  0  0  0  0  0  0  0
   -7.0180   -3.5687   28.8691 C   0  0  0  0  0  0  0  0  0  0  0  0
   -7.3771   -3.3492   30.1761 C   0  0  0  0  0  0  0  0  0  0  0  0
   -7.3295   -4.3004   31.1088 N   0  0  0  0  0  0  0  0  0  0  0  0
   -6.8673   -5.5132   30.7090 C   0  0  0  0  0  0  0  0  0  0  0  0
   -0.6797   -7.5282   33.1076 H   0  0  0  0  0  0  0  0  0  0  0  0
    0.1437   -7.8840   31.5715 H   0  0  0  0  0  0  0  0  0  0  0  0
   -0.3757   -6.2128   31.9519 H   0  0  0  0  0  0  0  0  0  0  0  0
   -1.3268   -6.4466   29.7723 H   0  0  0  0  0  0  0  0  0  0  0  0
   -1.2412   -8.1508   29.6249 H   0  0  0  0  0  0  0  0  0  0  0  0
   -3.6220   -7.9051   30.2679 H   0  0  0  0  0  0  0  0  0  0  0  0
   -3.0871   -7.4794   28.2673 H   0  0  0  0  0  0  0  0  0  0  0  0
   -5.2424   -7.9276   27.9594 H   0  0  0  0  0  0  0  0  0  0  0  0
   -6.9325   -9.8427   29.3595 H   0  0  0  0  0  0  0  0  0  0  0  0
   -6.3314  -12.2628   27.5698 H   0  0  0  0  0  0  0  0  0  0  0  0
   -7.2442  -14.3695   26.6051 H   0  0  0  0  0  0  0  0  0  0  0  0
  -10.7030  -12.1552   25.4214 H   0  0  0  0  0  0  0  0  0  0  0  0
   -6.2741   -4.8558   27.4379 H   0  0  0  0  0  0  0  0  0  0  0  0
   -7.0864   -2.7655   28.1416 H   0  0  0  0  0  0  0  0  0  0  0  0
   -7.7359   -2.3795   30.5069 H   0  0  0  0  0  0  0  0  0  0  0  0
   -6.8935   -6.1803   31.5636 H   0  0  0  0  0  0  0  0  0  0  0  0
  1  2  1  0
  2  3  1  0
  3  4  1  0
  4  5  1  0
  5  6  1  0
  6  7  1  0
  7  8  2  0
  7  9  1  0
  9 10  2  0
 10 11  1  0
 11 12  2  0
 12 13  1  0
 12 14  1  0
 14 15  2  0
  5 16  1  0
 16 17  2  0
 17 18  1  0
 18 19  2  0
 19 20  1  0
 20 21  2  0
 15  9  1  0
 21 16  1  0
  1 22  1  0
  1 23  1  0
  1 24  1  0
  3 25  1  0
  3 26  1  0
  4 27  1  0
  4 28  1  0
  5 29  1  0
  6 30  1  0
 10 31  1  0
 11 32  1  0
 14 33  1  0
 17 34  1  0
 18 35  1  0
 19 36  1  0
 21 37  1  0
M  END
>  <Energy>  (429) 
442.4607660713645

>  <compound_id>  (429) 
19506

>  <target_id>  (429) 
1

>  <reference_id>  (429) 
48

>  <inspiration_ids>  (429) 
[56, 48]

>  <energy_score>  (429) 
358.4939987278539

>  <distance_score>  (429) 
14.576653128394275

>  <path>  (429) 
/opt/xchem-fragalysis-2/maxwin/BulkDock/SCRATCH/511016/C19506-P48/C19506-P48.minimised.mol

>  <scratch_subdir>  (429) 
/opt/xchem-fragalysis-2/maxwin/BulkDock/SCRATCH/511016/C19506-P48

>  <fragmenstein_runtime>  (429) 
12.281024694442749

>  <fragmenstein_outcome>  (429) 
too moved

>  <fragmenstein_mode>  (429) 
expansion

>  <fragmenstein_error>  (429) 


$$$$
C20071-P69
     RDKit          3D

 38 41  0  0  0  0  0  0  0  0999 V2000
   -4.0047   -3.8351   22.4750 O   0  0  0  0  0  0  0  0  0  0  0  0
   -3.6014   -4.9381   22.0765 C   0  0  0  0  0  0  0  0  0  0  0  0
   -4.0460   -5.1354   19.8822 C   0  0  0  0  0  0  0  0  0  0  0  0
   -3.9078   -4.7843   17.6490 C   0  0  0  0  0  0  0  0  0  0  0  0
   -2.4908   -3.7613   16.1985 C   0  0  0  0  0  0  0  0  0  0  0  0
   -1.9606   -4.7245   14.8752 N   0  0  0  0  0  0  0  0  0  0  0  0
   -0.8388   -5.3713   14.0229 C   0  0  0  0  0  0  0  0  0  0  0  0
    0.4687   -5.8604   13.7710 C   0  0  0  0  0  0  0  0  0  0  0  0
    0.8403   -6.2673   12.4834 C   0  0  0  0  0  0  0  0  0  0  0  0
   -0.0939   -6.2964   11.4860 C   0  0  0  0  0  0  0  0  0  0  0  0
   -1.3683   -5.8501   11.7888 C   0  0  0  0  0  0  0  0  0  0  0  0
   -1.7097   -5.2057   13.0070 C   0  0  0  0  0  0  0  0  0  0  0  0
   -1.4126   -3.4485   14.0725 S   0  0  0  0  0  0  0  0  0  0  0  0
   -2.4516   -6.0374   23.3903 N   0  0  0  0  0  0  0  0  0  0  0  0
   -1.7087   -5.6775   24.9836 C   0  0  0  0  0  0  0  0  0  0  0  0
   -1.6285   -5.5448   26.3211 C   0  0  0  0  0  0  0  0  0  0  0  0
   -0.6794   -4.3741   26.8880 C   0  0  0  0  0  0  0  0  0  0  0  0
    0.8338   -3.4399   26.3795 C   0  0  0  0  0  0  0  0  0  0  0  0
    1.7389   -2.3950   26.3467 N   0  0  0  0  0  0  0  0  0  0  0  0
    2.9662   -2.7802   25.9439 C   0  0  0  0  0  0  0  0  0  0  0  0
    2.9038   -4.1164   25.6210 C   0  0  0  0  0  0  0  0  0  0  0  0
    1.4357   -4.7020   25.2565 C   0  0  0  0  0  0  0  0  0  0  0  0
    0.1388   -6.0428   24.8881 C   0  0  0  0  0  0  0  0  0  0  0  0
   -3.4082   -5.9938   19.6261 H   0  0  0  0  0  0  0  0  0  0  0  0
   -5.0608   -5.2518   20.2112 H   0  0  0  0  0  0  0  0  0  0  0  0
   -4.0733   -5.8029   17.2889 H   0  0  0  0  0  0  0  0  0  0  0  0
   -4.7816   -4.2411   17.3513 H   0  0  0  0  0  0  0  0  0  0  0  0
    1.2648   -5.9093   14.5016 H   0  0  0  0  0  0  0  0  0  0  0  0
    1.8475   -6.6336   12.3034 H   0  0  0  0  0  0  0  0  0  0  0  0
    0.1173   -6.7604   10.5272 H   0  0  0  0  0  0  0  0  0  0  0  0
   -2.1639   -6.2540   11.1554 H   0  0  0  0  0  0  0  0  0  0  0  0
   -2.2562   -6.9942   22.9683 H   0  0  0  0  0  0  0  0  0  0  0  0
   -2.1396   -6.1487   27.0517 H   0  0  0  0  0  0  0  0  0  0  0  0
   -1.3218   -3.8817   27.5817 H   0  0  0  0  0  0  0  0  0  0  0  0
    1.4950   -1.4687   26.6452 H   0  0  0  0  0  0  0  0  0  0  0  0
    3.8105   -2.1070   26.0037 H   0  0  0  0  0  0  0  0  0  0  0  0
    3.8631   -4.5786   25.4340 H   0  0  0  0  0  0  0  0  0  0  0  0
    0.3478   -6.5748   25.8502 H   0  0  0  0  0  0  0  0  0  0  0  0
  1  2  2  0
  2  3  1  0
  3  4  1  0
  4  5  1  0
  5  6  2  0
  6  7  1  0
  7  8  2  0
  8  9  1  0
  9 10  2  0
 10 11  1  0
 11 12  2  0
 12 13  1  0
  2 14  1  0
 14 15  1  0
 15 16  2  0
 16 17  1  0
 17 18  2  0
 18 19  1  0
 19 20  1  0
 20 21  2  0
 21 22  1  0
 22 23  2  0
 13  5  1  0
 23 15  1  0
 12  7  1  0
 22 18  1  0
  3 24  1  0
  3 25  1  0
  4 26  1  0
  4 27  1  0
  8 28  1  0
  9 29  1  0
 10 30  1  0
 11 31  1  0
 14 32  1  0
 16 33  1  0
 17 34  1  0
 19 35  1  0
 20 36  1  0
 21 37  1  0
 23 38  1  0
M  END
>  <Energy>  (430) 
1755.686659716439

>  <compound_id>  (430) 
20071

>  <target_id>  (430) 
1

>  <reference_id>  (430) 
69

>  <inspiration_ids>  (430) 
[69, 40]

>  <energy_score>  (430) 
1667.7825766941598

>  <distance_score>  (430) 
8.25902640201248

>  <path>  (430) 
/opt/xchem-fragalysis-2/maxwin/BulkDock/SCRATCH/511016/C20071-P69/C20071-P69.minimised.mol

>  <scratch_subdir>  (430) 
/opt/xchem-fragalysis-2/maxwin/BulkDock/SCRATCH/511016/C20071-P69

>  <fragmenstein_runtime>  (430) 
15.361602783203125

>  <fragmenstein_outcome>  (430) 
too moved

>  <fragmenstein_mode>  (430) 
expansion

>  <fragmenstein_error>  (430) 


$$$$
C20071-P40
     RDKit          3D

 38 41  0  0  0  0  0  0  0  0999 V2000
   -5.8290   -4.5138   21.2880 O   0  0  0  0  0  0  0  0  0  0  0  0
   -4.8131   -3.9076   20.9868 C   0  0  0  0  0  0  0  0  0  0  0  0
   -4.2849   -4.1810   19.0549 C   0  0  0  0  0  0  0  0  0  0  0  0
   -4.5096   -4.6412   17.0674 C   0  0  0  0  0  0  0  0  0  0  0  0
   -4.0536   -4.7862   15.1191 C   0  0  0  0  0  0  0  0  0  0  0  0
   -4.5567   -4.5989   13.7461 N   0  0  0  0  0  0  0  0  0  0  0  0
   -3.6139   -5.4089   12.3355 C   0  0  0  0  0  0  0  0  0  0  0  0
   -4.1162   -6.1624   11.2395 C   0  0  0  0  0  0  0  0  0  0  0  0
   -3.2217   -7.0038   10.5631 C   0  0  0  0  0  0  0  0  0  0  0  0
   -1.8419   -6.9976   10.7716 C   0  0  0  0  0  0  0  0  0  0  0  0
   -1.2820   -6.1986   11.7617 C   0  0  0  0  0  0  0  0  0  0  0  0
   -2.1851   -5.4692   12.5849 C   0  0  0  0  0  0  0  0  0  0  0  0
   -1.8361   -4.7536   14.1567 S   0  0  0  0  0  0  0  0  0  0  0  0
   -3.8648   -2.7329   22.0043 N   0  0  0  0  0  0  0  0  0  0  0  0
   -4.1414   -2.1468   23.3660 C   0  0  0  0  0  0  0  0  0  0  0  0
   -4.0278   -0.7386   23.1995 C   0  0  0  0  0  0  0  0  0  0  0  0
   -3.9497    0.3046   24.1387 C   0  0  0  0  0  0  0  0  0  0  0  0
   -3.6669   -0.0883   25.4155 C   0  0  0  0  0  0  0  0  0  0  0  0
   -3.3673    0.6879   26.5072 N   0  0  0  0  0  0  0  0  0  0  0  0
   -2.7583   -0.0724   27.4506 C   0  0  0  0  0  0  0  0  0  0  0  0
   -2.7967   -1.3667   26.9891 C   0  0  0  0  0  0  0  0  0  0  0  0
   -3.4657   -1.4276   25.7156 C   0  0  0  0  0  0  0  0  0  0  0  0
   -3.6966   -2.4251   24.6560 C   0  0  0  0  0  0  0  0  0  0  0  0
   -3.6629   -4.9913   19.2915 H   0  0  0  0  0  0  0  0  0  0  0  0
   -5.3144   -4.4566   19.1264 H   0  0  0  0  0  0  0  0  0  0  0  0
   -5.0037   -3.7500   16.8264 H   0  0  0  0  0  0  0  0  0  0  0  0
   -5.1877   -5.4767   17.1234 H   0  0  0  0  0  0  0  0  0  0  0  0
   -5.1722   -6.3442   11.1278 H   0  0  0  0  0  0  0  0  0  0  0  0
   -3.6427   -7.8363   10.0100 H   0  0  0  0  0  0  0  0  0  0  0  0
   -1.2089   -7.6853   10.2160 H   0  0  0  0  0  0  0  0  0  0  0  0
   -0.2291   -6.2710   12.0106 H   0  0  0  0  0  0  0  0  0  0  0  0
   -3.1524   -2.3448   21.4840 H   0  0  0  0  0  0  0  0  0  0  0  0
   -3.9617   -0.3579   22.1873 H   0  0  0  0  0  0  0  0  0  0  0  0
   -3.9533    1.3448   23.8352 H   0  0  0  0  0  0  0  0  0  0  0  0
   -3.4349    1.6951   26.5299 H   0  0  0  0  0  0  0  0  0  0  0  0
   -2.3257    0.3580   28.3426 H   0  0  0  0  0  0  0  0  0  0  0  0
   -2.2757   -2.1425   27.5182 H   0  0  0  0  0  0  0  0  0  0  0  0
   -3.2917   -3.3961   24.8332 H   0  0  0  0  0  0  0  0  0  0  0  0
  1  2  2  0
  2  3  1  0
  3  4  1  0
  4  5  1  0
  5  6  2  0
  6  7  1  0
  7  8  2  0
  8  9  1  0
  9 10  2  0
 10 11  1  0
 11 12  2  0
 12 13  1  0
  2 14  1  0
 14 15  1  0
 15 16  2  0
 16 17  1  0
 17 18  2  0
 18 19  1  0
 19 20  1  0
 20 21  2  0
 21 22  1  0
 22 23  2  0
 13  5  1  0
 23 15  1  0
 12  7  1  0
 22 18  1  0
  3 24  1  0
  3 25  1  0
  4 26  1  0
  4 27  1  0
  8 28  1  0
  9 29  1  0
 10 30  1  0
 11 31  1  0
 14 32  1  0
 16 33  1  0
 17 34  1  0
 19 35  1  0
 20 36  1  0
 21 37  1  0
 23 38  1  0
M  END
>  <Energy>  (431) 
631.28244612452954

>  <compound_id>  (431) 
20071

>  <target_id>  (431) 
1

>  <reference_id>  (431) 
40

>  <inspiration_ids>  (431) 
[69, 40]

>  <energy_score>  (431) 
543.3783631022313

>  <distance_score>  (431) 
9.027746071777564

>  <path>  (431) 
/opt/xchem-fragalysis-2/maxwin/BulkDock/SCRATCH/511016/C20071-P40/C20071-P40.minimised.mol

>  <scratch_subdir>  (431) 
/opt/xchem-fragalysis-2/maxwin/BulkDock/SCRATCH/511016/C20071-P40

>  <fragmenstein_runtime>  (431) 
17.21221113204956

>  <fragmenstein_outcome>  (431) 
too moved

>  <fragmenstein_mode>  (431) 
expansion

>  <fragmenstein_error>  (431) 


$$$$
C20072-P69
     RDKit          3D

 41 44  0  0  0  0  0  0  0  0999 V2000
   -3.5410   -4.5830   19.4334 O   0  0  0  0  0  0  0  0  0  0  0  0
   -4.4512   -5.1491   19.6014 C   0  0  0  0  0  0  0  0  0  0  0  0
   -5.2858   -5.6146   17.6894 C   0  0  0  0  0  0  0  0  0  0  0  0
   -5.5076   -4.7102   15.7967 C   0  0  0  0  0  0  0  0  0  0  0  0
   -6.3175   -4.3833   13.9352 C   0  0  0  0  0  0  0  0  0  0  0  0
   -7.8955   -4.5119   13.6810 N   0  0  0  0  0  0  0  0  0  0  0  0
   -8.4484   -4.9557   12.1090 C   0  0  0  0  0  0  0  0  0  0  0  0
   -9.7035   -4.6354   10.9726 C   0  0  0  0  0  0  0  0  0  0  0  0
   -9.2805   -4.1927    9.3209 C   0  0  0  0  0  0  0  0  0  0  0  0
   -9.4050   -2.6077    8.7787 C   0  0  0  0  0  0  0  0  0  0  0  0
   -8.1568   -2.0932    8.4974 F   0  0  0  0  0  0  0  0  0  0  0  0
  -10.0728   -2.5050    7.5866 F   0  0  0  0  0  0  0  0  0  0  0  0
   -9.9473   -1.6873    9.6361 F   0  0  0  0  0  0  0  0  0  0  0  0
   -8.3118   -4.6859    8.5485 C   0  0  0  0  0  0  0  0  0  0  0  0
   -7.4090   -5.1122    9.4538 C   0  0  0  0  0  0  0  0  0  0  0  0
   -7.2653   -5.0686   11.0700 C   0  0  0  0  0  0  0  0  0  0  0  0
   -5.8977   -5.5299   11.7715 S   0  0  0  0  0  0  0  0  0  0  0  0
   -4.6451   -5.5284   21.5315 N   0  0  0  0  0  0  0  0  0  0  0  0
   -3.4652   -5.2133   23.0935 C   0  0  0  0  0  0  0  0  0  0  0  0
   -2.0928   -6.1214   23.8762 C   0  0  0  0  0  0  0  0  0  0  0  0
   -0.5740   -6.5086   24.4135 C   0  0  0  0  0  0  0  0  0  0  0  0
    0.4294   -5.9250   23.6918 C   0  0  0  0  0  0  0  0  0  0  0  0
    0.6966   -5.8425   22.2389 N   0  0  0  0  0  0  0  0  0  0  0  0
    1.1251   -4.6655   21.7465 C   0  0  0  0  0  0  0  0  0  0  0  0
    0.8868   -3.8823   22.8084 C   0  0  0  0  0  0  0  0  0  0  0  0
   -0.3209   -4.8051   23.4289 C   0  0  0  0  0  0  0  0  0  0  0  0
   -2.1587   -4.7887   23.8891 C   0  0  0  0  0  0  0  0  0  0  0  0
   -6.2119   -6.2090   17.7321 H   0  0  0  0  0  0  0  0  0  0  0  0
   -4.4897   -6.3421   17.4697 H   0  0  0  0  0  0  0  0  0  0  0  0
   -5.2088   -3.6934   15.9513 H   0  0  0  0  0  0  0  0  0  0  0  0
   -6.5849   -4.9528   15.9419 H   0  0  0  0  0  0  0  0  0  0  0  0
  -10.2119   -3.7365   11.2542 H   0  0  0  0  0  0  0  0  0  0  0  0
   -8.1019   -4.5023    7.5076 H   0  0  0  0  0  0  0  0  0  0  0  0
   -6.5116   -5.4664    9.0412 H   0  0  0  0  0  0  0  0  0  0  0  0
   -5.5407   -5.9792   21.6810 H   0  0  0  0  0  0  0  0  0  0  0  0
   -2.1252   -6.2260   25.0927 H   0  0  0  0  0  0  0  0  0  0  0  0
   -0.4866   -6.7038   25.5030 H   0  0  0  0  0  0  0  0  0  0  0  0
    0.6560   -6.7078   21.7019 H   0  0  0  0  0  0  0  0  0  0  0  0
    1.4593   -4.5863   20.7476 H   0  0  0  0  0  0  0  0  0  0  0  0
    0.8990   -2.8201   22.6198 H   0  0  0  0  0  0  0  0  0  0  0  0
   -2.7252   -3.8218   24.1134 H   0  0  0  0  0  0  0  0  0  0  0  0
  1  2  2  0
  2  3  1  0
  3  4  1  0
  4  5  1  0
  5  6  2  0
  6  7  1  0
  7  8  2  0
  8  9  1  0
  9 10  1  0
 10 11  1  0
 10 12  1  0
 10 13  1  0
  9 14  2  0
 14 15  1  0
 15 16  2  0
 16 17  1  0
  2 18  1  0
 18 19  1  0
 19 20  2  0
 20 21  1  0
 21 22  2  0
 22 23  1  0
 23 24  1  0
 24 25  2  0
 25 26  1  0
 26 27  2  0
 17  5  1  0
 27 19  1  0
 16  7  1  0
 26 22  1  0
  3 28  1  0
  3 29  1  0
  4 30  1  0
  4 31  1  0
  8 32  1  0
 14 33  1  0
 15 34  1  0
 18 35  1  0
 20 36  1  0
 21 37  1  0
 23 38  1  0
 24 39  1  0
 25 40  1  0
 27 41  1  0
M  END
>  <Energy>  (432) 
1674.2720136693117

>  <compound_id>  (432) 
20072

>  <target_id>  (432) 
1

>  <reference_id>  (432) 
69

>  <inspiration_ids>  (432) 
[69, 40]

>  <energy_score>  (432) 
1574.5497005551683

>  <distance_score>  (432) 
7.304036048529751

>  <path>  (432) 
/opt/xchem-fragalysis-2/maxwin/BulkDock/SCRATCH/511016/C20072-P69/C20072-P69.minimised.mol

>  <scratch_subdir>  (432) 
/opt/xchem-fragalysis-2/maxwin/BulkDock/SCRATCH/511016/C20072-P69

>  <fragmenstein_runtime>  (432) 
20.20618772506714

>  <fragmenstein_outcome>  (432) 
too moved

>  <fragmenstein_mode>  (432) 
expansion

>  <fragmenstein_error>  (432) 


$$$$
C20072-P40
     RDKit          3D

 41 44  0  0  0  0  0  0  0  0999 V2000
   -3.7985   -3.0641   19.1869 O   0  0  0  0  0  0  0  0  0  0  0  0
   -4.2907   -4.1774   19.1338 C   0  0  0  0  0  0  0  0  0  0  0  0
   -4.8736   -4.5878   16.9024 C   0  0  0  0  0  0  0  0  0  0  0  0
   -5.3089   -4.4022   14.5832 C   0  0  0  0  0  0  0  0  0  0  0  0
   -5.5187   -4.5710   12.2818 C   0  0  0  0  0  0  0  0  0  0  0  0
   -6.7086   -4.0436   10.8647 N   0  0  0  0  0  0  0  0  0  0  0  0
   -6.5064   -2.2053    9.6772 C   0  0  0  0  0  0  0  0  0  0  0  0
   -7.1982   -1.6364    8.5392 C   0  0  0  0  0  0  0  0  0  0  0  0
   -6.4747   -0.9699    7.5298 C   0  0  0  0  0  0  0  0  0  0  0  0
   -7.2610   -0.3138    6.4054 C   0  0  0  0  0  0  0  0  0  0  0  0
   -6.7691    0.9230    6.1016 F   0  0  0  0  0  0  0  0  0  0  0  0
   -7.2109   -1.0267    5.2483 F   0  0  0  0  0  0  0  0  0  0  0  0
   -8.5785   -0.1293    6.6933 F   0  0  0  0  0  0  0  0  0  0  0  0
   -5.0395   -0.9759    7.4355 C   0  0  0  0  0  0  0  0  0  0  0  0
   -4.0887   -1.5645    8.3142 C   0  0  0  0  0  0  0  0  0  0  0  0
   -4.5352   -2.1468    9.5494 C   0  0  0  0  0  0  0  0  0  0  0  0
   -3.8864   -4.5027   10.4593 S   0  0  0  0  0  0  0  0  0  0  0  0
   -4.1180   -5.1611   21.0444 N   0  0  0  0  0  0  0  0  0  0  0  0
   -3.1603   -4.7621   22.9449 C   0  0  0  0  0  0  0  0  0  0  0  0
   -2.7358   -4.2086   24.8009 C   0  0  0  0  0  0  0  0  0  0  0  0
   -1.6233   -4.2148   26.6214 C   0  0  0  0  0  0  0  0  0  0  0  0
    0.0088   -4.4852   26.6019 C   0  0  0  0  0  0  0  0  0  0  0  0
    1.1877   -4.6841   27.3098 N   0  0  0  0  0  0  0  0  0  0  0  0
    2.1134   -5.4088   26.5316 C   0  0  0  0  0  0  0  0  0  0  0  0
    1.6404   -5.7831   25.2392 C   0  0  0  0  0  0  0  0  0  0  0  0
   -0.0043   -5.1656   24.8203 C   0  0  0  0  0  0  0  0  0  0  0  0
   -1.5966   -5.2729   23.8446 C   0  0  0  0  0  0  0  0  0  0  0  0
   -4.0428   -4.0132   16.5802 H   0  0  0  0  0  0  0  0  0  0  0  0
   -4.4891   -5.5869   17.0113 H   0  0  0  0  0  0  0  0  0  0  0  0
   -5.4124   -3.3576   14.3761 H   0  0  0  0  0  0  0  0  0  0  0  0
   -4.3655   -4.7691   14.4598 H   0  0  0  0  0  0  0  0  0  0  0  0
   -8.2708   -1.8037    8.4296 H   0  0  0  0  0  0  0  0  0  0  0  0
   -4.6242   -0.5538    6.5138 H   0  0  0  0  0  0  0  0  0  0  0  0
   -3.0446   -1.6488    8.0282 H   0  0  0  0  0  0  0  0  0  0  0  0
   -4.5924   -5.9992   21.0015 H   0  0  0  0  0  0  0  0  0  0  0  0
   -3.3879   -3.2716   24.9370 H   0  0  0  0  0  0  0  0  0  0  0  0
   -1.5944   -3.1717   27.2146 H   0  0  0  0  0  0  0  0  0  0  0  0
    1.3265   -4.4077   28.2734 H   0  0  0  0  0  0  0  0  0  0  0  0
    3.0547   -5.6727   26.9987 H   0  0  0  0  0  0  0  0  0  0  0  0
    2.1613   -6.5179   24.6263 H   0  0  0  0  0  0  0  0  0  0  0  0
   -1.6381   -6.3873   23.9062 H   0  0  0  0  0  0  0  0  0  0  0  0
  1  2  2  0
  2  3  1  0
  3  4  1  0
  4  5  1  0
  5  6  2  0
  6  7  1  0
  7  8  2  0
  8  9  1  0
  9 10  1  0
 10 11  1  0
 10 12  1  0
 10 13  1  0
  9 14  2  0
 14 15  1  0
 15 16  2  0
 16 17  1  0
  2 18  1  0
 18 19  1  0
 19 20  2  0
 20 21  1  0
 21 22  2  0
 22 23  1  0
 23 24  1  0
 24 25  2  0
 25 26  1  0
 26 27  2  0
 17  5  1  0
 27 19  1  0
 16  7  1  0
 26 22  1  0
  3 28  1  0
  3 29  1  0
  4 30  1  0
  4 31  1  0
  8 32  1  0
 14 33  1  0
 15 34  1  0
 18 35  1  0
 20 36  1  0
 21 37  1  0
 23 38  1  0
 24 39  1  0
 25 40  1  0
 27 41  1  0
M  END
>  <Energy>  (433) 
3122.2458420782523

>  <compound_id>  (433) 
20072

>  <target_id>  (433) 
1

>  <reference_id>  (433) 
40

>  <inspiration_ids>  (433) 
[69, 40]

>  <energy_score>  (433) 
3022.5235289640723

>  <distance_score>  (433) 
6.246027991533657

>  <path>  (433) 
/opt/xchem-fragalysis-2/maxwin/BulkDock/SCRATCH/511016/C20072-P40/C20072-P40.minimised.mol

>  <scratch_subdir>  (433) 
/opt/xchem-fragalysis-2/maxwin/BulkDock/SCRATCH/511016/C20072-P40

>  <fragmenstein_runtime>  (433) 
11.779970407485962

>  <fragmenstein_outcome>  (433) 
too moved

>  <fragmenstein_mode>  (433) 
expansion

>  <fragmenstein_error>  (433) 


$$$$
C20073-P69
     RDKit          3D

 39 42  0  0  0  0  0  0  0  0999 V2000
   -0.3136   -1.5706    6.2167 C   0  0  0  0  0  0  0  0  0  0  0  0
    0.9703   -2.1563    7.1192 O   0  0  0  0  0  0  0  0  0  0  0  0
    0.4337   -2.2854    8.8128 C   0  0  0  0  0  0  0  0  0  0  0  0
   -1.4272   -1.6029    8.4042 C   0  0  0  0  0  0  0  0  0  0  0  0
   -1.9133   -0.9544    9.4126 C   0  0  0  0  0  0  0  0  0  0  0  0
   -0.8192   -1.2358   10.9993 C   0  0  0  0  0  0  0  0  0  0  0  0
    0.5975   -1.4783   11.0746 C   0  0  0  0  0  0  0  0  0  0  0  0
    1.5814   -1.0511   12.3704 S   0  0  0  0  0  0  0  0  0  0  0  0
    2.6720   -2.2648   11.8966 C   0  0  0  0  0  0  0  0  0  0  0  0
    3.3861   -2.7627   12.9907 N   0  0  0  0  0  0  0  0  0  0  0  0
    3.4663   -2.2820   14.4049 C   0  0  0  0  0  0  0  0  0  0  0  0
    2.9986   -1.3019   14.9271 O   0  0  0  0  0  0  0  0  0  0  0  0
    4.1992   -3.2936   15.3577 C   0  0  0  0  0  0  0  0  0  0  0  0
    4.2374   -2.9499   16.8906 C   0  0  0  0  0  0  0  0  0  0  0  0
    3.0952   -2.6094   17.6344 C   0  0  0  0  0  0  0  0  0  0  0  0
    3.1238   -2.2895   19.0108 C   0  0  0  0  0  0  0  0  0  0  0  0
    4.3703   -2.2254   19.6347 C   0  0  0  0  0  0  0  0  0  0  0  0
    4.7415   -1.8120   20.8955 N   0  0  0  0  0  0  0  0  0  0  0  0
    6.1065   -1.8171   21.0148 C   0  0  0  0  0  0  0  0  0  0  0  0
    6.6211   -2.3455   19.8542 C   0  0  0  0  0  0  0  0  0  0  0  0
    5.5379   -2.5713   18.9574 C   0  0  0  0  0  0  0  0  0  0  0  0
    5.4564   -2.9850   17.5998 C   0  0  0  0  0  0  0  0  0  0  0  0
    2.5569   -2.6266   10.6036 N   0  0  0  0  0  0  0  0  0  0  0  0
    1.3355   -2.0802   10.0427 C   0  0  0  0  0  0  0  0  0  0  0  0
   -0.3856   -1.2241    5.1383 H   0  0  0  0  0  0  0  0  0  0  0  0
   -0.7701   -0.8566    6.7638 H   0  0  0  0  0  0  0  0  0  0  0  0
   -1.2924   -1.9535    6.3694 H   0  0  0  0  0  0  0  0  0  0  0  0
   -2.2043   -1.9337    7.7055 H   0  0  0  0  0  0  0  0  0  0  0  0
   -2.8845   -0.4546    9.3374 H   0  0  0  0  0  0  0  0  0  0  0  0
   -1.2227   -0.7754   11.9214 H   0  0  0  0  0  0  0  0  0  0  0  0
    3.9669   -3.5824   12.8845 H   0  0  0  0  0  0  0  0  0  0  0  0
    3.7132   -4.2709   15.2566 H   0  0  0  0  0  0  0  0  0  0  0  0
    5.2289   -3.3827   14.9919 H   0  0  0  0  0  0  0  0  0  0  0  0
    2.1383   -2.5352   17.1281 H   0  0  0  0  0  0  0  0  0  0  0  0
    2.2057   -2.0298   19.5233 H   0  0  0  0  0  0  0  0  0  0  0  0
    4.1213   -1.4909   21.6244 H   0  0  0  0  0  0  0  0  0  0  0  0
    6.5810   -1.4707   21.9228 H   0  0  0  0  0  0  0  0  0  0  0  0
    7.6714   -2.4926   19.6418 H   0  0  0  0  0  0  0  0  0  0  0  0
    6.3779   -3.2419   17.0838 H   0  0  0  0  0  0  0  0  0  0  0  0
  1  2  1  0
  2  3  1  0
  3  4  2  0
  4  5  1  0
  5  6  2  0
  6  7  1  0
  7  8  1  0
  8  9  1  0
  9 10  1  0
 10 11  1  0
 11 12  2  0
 11 13  1  0
 13 14  1  0
 14 15  2  0
 15 16  1  0
 16 17  2  0
 17 18  1  0
 18 19  1  0
 19 20  2  0
 20 21  1  0
 21 22  2  0
  9 23  2  0
 23 24  1  0
 24  3  1  0
 24  7  2  0
 22 14  1  0
 21 17  1  0
  1 25  1  0
  1 26  1  0
  1 27  1  0
  4 28  1  0
  5 29  1  0
  6 30  1  0
 10 31  1  0
 13 32  1  0
 13 33  1  0
 15 34  1  0
 16 35  1  0
 18 36  1  0
 19 37  1  0
 20 38  1  0
 22 39  1  0
M  END
>  <Energy>  (434) 
429.47362271816621

>  <compound_id>  (434) 
20073

>  <target_id>  (434) 
1

>  <reference_id>  (434) 
69

>  <inspiration_ids>  (434) 
[69, 40]

>  <energy_score>  (434) 
297.66978945371187

>  <distance_score>  (434) 
11.493455326953342

>  <path>  (434) 
/opt/xchem-fragalysis-2/maxwin/BulkDock/SCRATCH/511016/C20073-P69/C20073-P69.minimised.mol

>  <scratch_subdir>  (434) 
/opt/xchem-fragalysis-2/maxwin/BulkDock/SCRATCH/511016/C20073-P69

>  <fragmenstein_runtime>  (434) 
23.392123460769653

>  <fragmenstein_outcome>  (434) 
too moved

>  <fragmenstein_mode>  (434) 
expansion

>  <fragmenstein_error>  (434) 


$$$$
C20073-P40
     RDKit          3D

 39 42  0  0  0  0  0  0  0  0999 V2000
   -4.1995   -2.9432    6.3861 C   0  0  0  0  0  0  0  0  0  0  0  0
   -3.2821   -3.1536    7.4745 O   0  0  0  0  0  0  0  0  0  0  0  0
   -3.2424   -2.1135    8.4121 C   0  0  0  0  0  0  0  0  0  0  0  0
   -4.3177   -1.2453    8.3791 C   0  0  0  0  0  0  0  0  0  0  0  0
   -3.9680    0.0167    8.5798 C   0  0  0  0  0  0  0  0  0  0  0  0
   -2.5850    0.2893    8.6789 C   0  0  0  0  0  0  0  0  0  0  0  0
   -1.4745   -0.7118    8.8975 C   0  0  0  0  0  0  0  0  0  0  0  0
    0.6636   -1.0109   10.0200 S   0  0  0  0  0  0  0  0  0  0  0  0
   -0.0105   -1.1977   11.4944 C   0  0  0  0  0  0  0  0  0  0  0  0
    0.6196   -1.5547   12.6533 N   0  0  0  0  0  0  0  0  0  0  0  0
    1.6249   -0.8314   13.4783 C   0  0  0  0  0  0  0  0  0  0  0  0
    2.1897    0.2103   13.2860 O   0  0  0  0  0  0  0  0  0  0  0  0
    1.8931   -1.6765   14.7782 C   0  0  0  0  0  0  0  0  0  0  0  0
    2.1866   -1.1771   16.2241 C   0  0  0  0  0  0  0  0  0  0  0  0
    1.7611    0.0462   16.7443 C   0  0  0  0  0  0  0  0  0  0  0  0
    1.8453    0.3555   18.1254 C   0  0  0  0  0  0  0  0  0  0  0  0
    2.3162   -0.6222   19.0118 C   0  0  0  0  0  0  0  0  0  0  0  0
    2.3990   -0.6318   20.3869 N   0  0  0  0  0  0  0  0  0  0  0  0
    2.8698   -1.8400   20.8261 C   0  0  0  0  0  0  0  0  0  0  0  0
    3.1052   -2.6208   19.7159 C   0  0  0  0  0  0  0  0  0  0  0  0
    2.7576   -1.8609   18.5611 C   0  0  0  0  0  0  0  0  0  0  0  0
    2.7236   -2.1137   17.1621 C   0  0  0  0  0  0  0  0  0  0  0  0
   -1.1675   -1.4841   10.9961 N   0  0  0  0  0  0  0  0  0  0  0  0
   -1.9750   -1.8086    9.1737 C   0  0  0  0  0  0  0  0  0  0  0  0
   -5.2223   -3.1911    6.6870 H   0  0  0  0  0  0  0  0  0  0  0  0
   -3.9392   -3.6014    5.5611 H   0  0  0  0  0  0  0  0  0  0  0  0
   -4.1306   -1.9287    5.9751 H   0  0  0  0  0  0  0  0  0  0  0  0
   -5.3156   -1.4904    8.0455 H   0  0  0  0  0  0  0  0  0  0  0  0
   -4.7149    0.7844    8.4550 H   0  0  0  0  0  0  0  0  0  0  0  0
   -2.4074    1.3528    8.6337 H   0  0  0  0  0  0  0  0  0  0  0  0
    0.2937   -2.3653   13.1607 H   0  0  0  0  0  0  0  0  0  0  0  0
    2.6701   -2.4000   14.5020 H   0  0  0  0  0  0  0  0  0  0  0  0
    0.9543   -2.2038   14.9263 H   0  0  0  0  0  0  0  0  0  0  0  0
    1.3301    0.7932   16.0790 H   0  0  0  0  0  0  0  0  0  0  0  0
    1.4924    1.3165   18.4854 H   0  0  0  0  0  0  0  0  0  0  0  0
    2.0921    0.1246   20.9791 H   0  0  0  0  0  0  0  0  0  0  0  0
    2.9587   -2.0417   21.8815 H   0  0  0  0  0  0  0  0  0  0  0  0
    3.4444   -3.6454   19.7179 H   0  0  0  0  0  0  0  0  0  0  0  0
    3.0512   -3.0900   16.8142 H   0  0  0  0  0  0  0  0  0  0  0  0
  1  2  1  0
  2  3  1  0
  3  4  2  0
  4  5  1  0
  5  6  2  0
  6  7  1  0
  7  8  1  0
  8  9  1  0
  9 10  1  0
 10 11  1  0
 11 12  2  0
 11 13  1  0
 13 14  1  0
 14 15  2  0
 15 16  1  0
 16 17  2  0
 17 18  1  0
 18 19  1  0
 19 20  2  0
 20 21  1  0
 21 22  2  0
  9 23  2  0
 23 24  1  0
 24  3  1  0
 24  7  2  0
 22 14  1  0
 21 17  1  0
  1 25  1  0
  1 26  1  0
  1 27  1  0
  4 28  1  0
  5 29  1  0
  6 30  1  0
 10 31  1  0
 13 32  1  0
 13 33  1  0
 15 34  1  0
 16 35  1  0
 18 36  1  0
 19 37  1  0
 20 38  1  0
 22 39  1  0
M  END
>  <Energy>  (435) 
447.54757180933518

>  <compound_id>  (435) 
20073

>  <target_id>  (435) 
1

>  <reference_id>  (435) 
40

>  <inspiration_ids>  (435) 
[69, 40]

>  <energy_score>  (435) 
315.74373854488124

>  <distance_score>  (435) 
11.10350902932834

>  <path>  (435) 
/opt/xchem-fragalysis-2/maxwin/BulkDock/SCRATCH/511016/C20073-P40/C20073-P40.minimised.mol

>  <scratch_subdir>  (435) 
/opt/xchem-fragalysis-2/maxwin/BulkDock/SCRATCH/511016/C20073-P40

>  <fragmenstein_runtime>  (435) 
23.10692286491394

>  <fragmenstein_outcome>  (435) 
too moved

>  <fragmenstein_mode>  (435) 
expansion

>  <fragmenstein_error>  (435) 


$$$$
C20075-P69
     RDKit          3D

 35 38  0  0  0  0  0  0  0  0999 V2000
    2.2750   -2.7513   20.0217 O   0  0  0  0  0  0  0  0  0  0  0  0
    1.6241   -1.7429   19.9332 C   0  0  0  0  0  0  0  0  0  0  0  0
    0.3983   -1.2384   21.2514 C   0  0  0  0  0  0  0  0  0  0  0  0
   -0.2301   -2.2205   22.3218 C   0  0  0  0  0  0  0  0  0  0  0  0
   -1.9168   -2.1328   22.8568 C   0  0  0  0  0  0  0  0  0  0  0  0
   -2.8725   -3.2758   23.8510 C   0  0  0  0  0  0  0  0  0  0  0  0
   -1.7496   -4.7864   23.9855 C   0  0  0  0  0  0  0  0  0  0  0  0
   -1.6804   -6.0271   24.6281 N   0  0  0  0  0  0  0  0  0  0  0  0
   -0.4912   -6.3938   25.1622 C   0  0  0  0  0  0  0  0  0  0  0  0
    0.5027   -6.0237   24.2058 C   0  0  0  0  0  0  0  0  0  0  0  0
   -0.0159   -4.8818   23.3971 C   0  0  0  0  0  0  0  0  0  0  0  0
    0.7744   -3.5363   22.6731 C   0  0  0  0  0  0  0  0  0  0  0  0
    1.5168   -0.7511   18.8262 N   0  0  0  0  0  0  0  0  0  0  0  0
    2.0541   -0.7514   17.5592 C   0  0  0  0  0  0  0  0  0  0  0  0
    1.8200    0.2422   16.7210 N   0  0  0  0  0  0  0  0  0  0  0  0
    2.0011   -0.1676   15.3924 C   0  0  0  0  0  0  0  0  0  0  0  0
    1.8083    0.5842   14.2052 C   0  0  0  0  0  0  0  0  0  0  0  0
    1.5152    1.8920   14.2718 F   0  0  0  0  0  0  0  0  0  0  0  0
    1.8486   -0.0266   12.9472 C   0  0  0  0  0  0  0  0  0  0  0  0
    2.0908   -1.3881   12.8428 C   0  0  0  0  0  0  0  0  0  0  0  0
    2.3773   -2.1407   13.9893 C   0  0  0  0  0  0  0  0  0  0  0  0
    2.3495   -1.5098   15.2532 C   0  0  0  0  0  0  0  0  0  0  0  0
    2.7353   -2.1285   16.8366 S   0  0  0  0  0  0  0  0  0  0  0  0
    0.3479   -0.1654   21.5543 H   0  0  0  0  0  0  0  0  0  0  0  0
   -0.3201   -0.8774   20.6642 H   0  0  0  0  0  0  0  0  0  0  0  0
   -2.4739   -1.2336   22.5719 H   0  0  0  0  0  0  0  0  0  0  0  0
   -3.9378   -3.3018   24.0205 H   0  0  0  0  0  0  0  0  0  0  0  0
   -2.0433   -6.8055   24.1253 H   0  0  0  0  0  0  0  0  0  0  0  0
   -0.4732   -6.9754   26.0793 H   0  0  0  0  0  0  0  0  0  0  0  0
    1.5384   -6.2101   24.4187 H   0  0  0  0  0  0  0  0  0  0  0  0
    1.7817   -3.5764   22.2988 H   0  0  0  0  0  0  0  0  0  0  0  0
    0.9461    0.0119   19.1225 H   0  0  0  0  0  0  0  0  0  0  0  0
    1.7091    0.5792   12.0615 H   0  0  0  0  0  0  0  0  0  0  0  0
    2.1184   -1.8642   11.8648 H   0  0  0  0  0  0  0  0  0  0  0  0
    2.6344   -3.1937   13.9060 H   0  0  0  0  0  0  0  0  0  0  0  0
  1  2  2  0
  2  3  1  0
  3  4  1  0
  4  5  2  0
  5  6  1  0
  6  7  2  0
  7  8  1  0
  8  9  1  0
  9 10  2  0
 10 11  1  0
 11 12  2  0
  2 13  1  0
 13 14  1  0
 14 15  2  0
 15 16  1  0
 16 17  2  0
 17 18  1  0
 17 19  1  0
 19 20  2  0
 20 21  1  0
 21 22  2  0
 22 23  1  0
 12  4  1  0
 23 14  1  0
 11  7  1  0
 22 16  1  0
  3 24  1  0
  3 25  1  0
  5 26  1  0
  6 27  1  0
  8 28  1  0
  9 29  1  0
 10 30  1  0
 12 31  1  0
 13 32  1  0
 19 33  1  0
 20 34  1  0
 21 35  1  0
M  END
>  <Energy>  (436) 
384.43136690841226

>  <compound_id>  (436) 
20075

>  <target_id>  (436) 
1

>  <reference_id>  (436) 
69

>  <inspiration_ids>  (436) 
[69, 40]

>  <energy_score>  (436) 
286.150373009658

>  <distance_score>  (436) 
10.47808031753693

>  <path>  (436) 
/opt/xchem-fragalysis-2/maxwin/BulkDock/SCRATCH/511016/C20075-P69/C20075-P69.minimised.mol

>  <scratch_subdir>  (436) 
/opt/xchem-fragalysis-2/maxwin/BulkDock/SCRATCH/511016/C20075-P69

>  <fragmenstein_runtime>  (436) 
11.142555475234985

>  <fragmenstein_outcome>  (436) 
too moved

>  <fragmenstein_mode>  (436) 
expansion

>  <fragmenstein_error>  (436) 


$$$$
C20075-P40
     RDKit          3D

 35 38  0  0  0  0  0  0  0  0999 V2000
    3.0883   -3.0876   16.1275 O   0  0  0  0  0  0  0  0  0  0  0  0
    2.0674   -2.5097   16.4820 C   0  0  0  0  0  0  0  0  0  0  0  0
    1.8979   -2.5827   18.4956 C   0  0  0  0  0  0  0  0  0  0  0  0
    1.8140   -3.5374   20.2343 C   0  0  0  0  0  0  0  0  0  0  0  0
    1.7221   -2.7431   21.3382 C   0  0  0  0  0  0  0  0  0  0  0  0
    1.2481   -3.3402   22.6898 C   0  0  0  0  0  0  0  0  0  0  0  0
    0.8427   -4.7669   23.5795 C   0  0  0  0  0  0  0  0  0  0  0  0
    1.7780   -5.4372   24.9897 N   0  0  0  0  0  0  0  0  0  0  0  0
    2.4047   -6.6180   24.9490 C   0  0  0  0  0  0  0  0  0  0  0  0
    1.7542   -7.0705   23.8672 C   0  0  0  0  0  0  0  0  0  0  0  0
    0.9169   -5.7610   22.6662 C   0  0  0  0  0  0  0  0  0  0  0  0
    1.4530   -4.9657   21.0497 C   0  0  0  0  0  0  0  0  0  0  0  0
    0.8106   -1.8264   15.3743 N   0  0  0  0  0  0  0  0  0  0  0  0
    0.6415   -1.9105   13.5861 C   0  0  0  0  0  0  0  0  0  0  0  0
    0.4342   -1.1811   12.2626 N   0  0  0  0  0  0  0  0  0  0  0  0
   -1.0221   -1.1493   11.2225 C   0  0  0  0  0  0  0  0  0  0  0  0
   -1.7420   -1.0418    9.3808 C   0  0  0  0  0  0  0  0  0  0  0  0
   -1.4724   -1.8185    8.3423 F   0  0  0  0  0  0  0  0  0  0  0  0
   -3.1244   -0.4837    8.8574 C   0  0  0  0  0  0  0  0  0  0  0  0
   -4.1689   -0.2406    9.7950 C   0  0  0  0  0  0  0  0  0  0  0  0
   -3.9684   -0.3896   11.5282 C   0  0  0  0  0  0  0  0  0  0  0  0
   -2.2611   -0.8530   12.3270 C   0  0  0  0  0  0  0  0  0  0  0  0
   -1.1692   -2.8195   12.9611 S   0  0  0  0  0  0  0  0  0  0  0  0
    2.9595   -2.8774   18.5434 H   0  0  0  0  0  0  0  0  0  0  0  0
    1.0848   -3.2661   18.3812 H   0  0  0  0  0  0  0  0  0  0  0  0
    1.7136   -1.6591   21.2402 H   0  0  0  0  0  0  0  0  0  0  0  0
    0.4662   -2.5858   22.8715 H   0  0  0  0  0  0  0  0  0  0  0  0
    2.3775   -4.7446   25.4351 H   0  0  0  0  0  0  0  0  0  0  0  0
    3.1265   -7.0081   25.6542 H   0  0  0  0  0  0  0  0  0  0  0  0
    1.9625   -8.1040   23.5364 H   0  0  0  0  0  0  0  0  0  0  0  0
    1.8019   -5.7842   20.3907 H   0  0  0  0  0  0  0  0  0  0  0  0
    0.1234   -1.3361   15.9148 H   0  0  0  0  0  0  0  0  0  0  0  0
   -3.3595   -0.6583    7.8113 H   0  0  0  0  0  0  0  0  0  0  0  0
   -5.1818   -0.2026    9.3781 H   0  0  0  0  0  0  0  0  0  0  0  0
   -5.0169   -0.3176   11.8427 H   0  0  0  0  0  0  0  0  0  0  0  0
  1  2  2  0
  2  3  1  0
  3  4  1  0
  4  5  2  0
  5  6  1  0
  6  7  2  0
  7  8  1  0
  8  9  1  0
  9 10  2  0
 10 11  1  0
 11 12  2  0
  2 13  1  0
 13 14  1  0
 14 15  2  0
 15 16  1  0
 16 17  2  0
 17 18  1  0
 17 19  1  0
 19 20  2  0
 20 21  1  0
 21 22  2  0
 22 23  1  0
 12  4  1  0
 23 14  1  0
 11  7  1  0
 22 16  1  0
  3 24  1  0
  3 25  1  0
  5 26  1  0
  6 27  1  0
  8 28  1  0
  9 29  1  0
 10 30  1  0
 12 31  1  0
 13 32  1  0
 19 33  1  0
 20 34  1  0
 21 35  1  0
M  END
>  <Energy>  (437) 
1257.1776884105516

>  <compound_id>  (437) 
20075

>  <target_id>  (437) 
1

>  <reference_id>  (437) 
40

>  <inspiration_ids>  (437) 
[69, 40]

>  <energy_score>  (437) 
1158.8966945117913

>  <distance_score>  (437) 
8.650045850877191

>  <path>  (437) 
/opt/xchem-fragalysis-2/maxwin/BulkDock/SCRATCH/511016/C20075-P40/C20075-P40.minimised.mol

>  <scratch_subdir>  (437) 
/opt/xchem-fragalysis-2/maxwin/BulkDock/SCRATCH/511016/C20075-P40

>  <fragmenstein_runtime>  (437) 
11.807811975479126

>  <fragmenstein_outcome>  (437) 
too moved

>  <fragmenstein_mode>  (437) 
expansion

>  <fragmenstein_error>  (437) 


$$$$
C20076-P69
     RDKit          3D

 40 43  0  0  0  0  0  0  0  0999 V2000
   -5.0245   -4.0005   15.7688 O   0  0  0  0  0  0  0  0  0  0  0  0
   -4.0429   -4.6727   15.9492 C   0  0  0  0  0  0  0  0  0  0  0  0
   -3.6097   -5.5099   17.5849 N   0  0  0  0  0  0  0  0  0  0  0  0
   -4.3710   -5.4294   19.3477 C   0  0  0  0  0  0  0  0  0  0  0  0
   -3.9786   -5.1999   21.4700 C   0  0  0  0  0  0  0  0  0  0  0  0
   -2.9473   -5.4518   23.2752 C   0  0  0  0  0  0  0  0  0  0  0  0
   -1.7603   -6.5158   23.8985 C   0  0  0  0  0  0  0  0  0  0  0  0
   -1.4042   -7.3413   25.2012 C   0  0  0  0  0  0  0  0  0  0  0  0
   -1.9227   -6.6127   26.1647 C   0  0  0  0  0  0  0  0  0  0  0  0
   -2.1668   -6.7270   27.4505 N   0  0  0  0  0  0  0  0  0  0  0  0
   -0.9857   -6.4852   27.8802 C   0  0  0  0  0  0  0  0  0  0  0  0
   -0.6516   -5.7080   26.7309 C   0  0  0  0  0  0  0  0  0  0  0  0
   -1.8370   -5.2791   25.9680 C   0  0  0  0  0  0  0  0  0  0  0  0
   -2.5624   -4.7760   24.3883 C   0  0  0  0  0  0  0  0  0  0  0  0
   -2.4101   -5.0240   14.7029 N   0  0  0  0  0  0  0  0  0  0  0  0
   -2.1280   -4.6176   13.2722 C   0  0  0  0  0  0  0  0  0  0  0  0
   -2.8204   -4.4627   12.2848 N   0  0  0  0  0  0  0  0  0  0  0  0
   -4.0137   -5.0326   11.0609 C   0  0  0  0  0  0  0  0  0  0  0  0
   -5.0504   -6.2247   11.1814 C   0  0  0  0  0  0  0  0  0  0  0  0
   -4.5914   -7.2073   10.4233 C   0  0  0  0  0  0  0  0  0  0  0  0
   -3.6318   -6.4781    9.4861 C   0  0  0  0  0  0  0  0  0  0  0  0
   -3.5585   -5.1555    9.3292 C   0  0  0  0  0  0  0  0  0  0  0  0
   -2.6325   -5.6937   10.0659 C   0  0  0  0  0  0  0  0  0  0  0  0
   -0.9732   -5.5700   11.6845 S   0  0  0  0  0  0  0  0  0  0  0  0
   -2.8651   -6.0462   17.4714 H   0  0  0  0  0  0  0  0  0  0  0  0
   -3.4505   -6.0283   19.4287 H   0  0  0  0  0  0  0  0  0  0  0  0
   -5.0330   -6.2799   19.0958 H   0  0  0  0  0  0  0  0  0  0  0  0
   -4.3284   -4.1704   21.6451 H   0  0  0  0  0  0  0  0  0  0  0  0
   -4.9160   -5.6571   21.8378 H   0  0  0  0  0  0  0  0  0  0  0  0
   -0.7621   -5.9491   23.9907 H   0  0  0  0  0  0  0  0  0  0  0  0
   -1.4889   -8.4109   25.3907 H   0  0  0  0  0  0  0  0  0  0  0  0
   -2.9762   -7.0269   27.9620 H   0  0  0  0  0  0  0  0  0  0  0  0
   -0.5862   -6.9838   28.7588 H   0  0  0  0  0  0  0  0  0  0  0  0
    0.2472   -6.0283   26.1882 H   0  0  0  0  0  0  0  0  0  0  0  0
   -3.1983   -3.8557   24.3491 H   0  0  0  0  0  0  0  0  0  0  0  0
   -1.6685   -5.5747   15.1490 H   0  0  0  0  0  0  0  0  0  0  0  0
   -5.9365   -6.0284   11.6858 H   0  0  0  0  0  0  0  0  0  0  0  0
   -5.0062   -8.1921   10.2676 H   0  0  0  0  0  0  0  0  0  0  0  0
   -3.5502   -6.4145    8.4177 H   0  0  0  0  0  0  0  0  0  0  0  0
   -3.4892   -4.6414    8.3649 H   0  0  0  0  0  0  0  0  0  0  0  0
  1  2  2  0
  2  3  1  0
  3  4  1  0
  4  5  1  0
  5  6  1  0
  6  7  2  0
  7  8  1  0
  8  9  2  0
  9 10  1  0
 10 11  1  0
 11 12  2  0
 12 13  1  0
 13 14  2  0
  2 15  1  0
 15 16  1  0
 16 17  2  0
 17 18  1  0
 18 19  2  0
 19 20  1  0
 20 21  2  0
 21 22  1  0
 22 23  2  0
 23 24  1  0
 14  6  1  0
 24 16  1  0
 13  9  1  0
 23 18  1  0
  3 25  1  0
  4 26  1  0
  4 27  1  0
  5 28  1  0
  5 29  1  0
  7 30  1  0
  8 31  1  0
 10 32  1  0
 11 33  1  0
 12 34  1  0
 14 35  1  0
 15 36  1  0
 19 37  1  0
 20 38  1  0
 21 39  1  0
 22 40  1  0
M  END
>  <Energy>  (438) 
1533.9299200541755

>  <compound_id>  (438) 
20076

>  <target_id>  (438) 
1

>  <reference_id>  (438) 
69

>  <inspiration_ids>  (438) 
[69, 40]

>  <energy_score>  (438) 
1512.099504683252

>  <distance_score>  (438) 
7.565299436037313

>  <path>  (438) 
/opt/xchem-fragalysis-2/maxwin/BulkDock/SCRATCH/511016/C20076-P69/C20076-P69.minimised.mol

>  <scratch_subdir>  (438) 
/opt/xchem-fragalysis-2/maxwin/BulkDock/SCRATCH/511016/C20076-P69

>  <fragmenstein_runtime>  (438) 
17.75509476661682

>  <fragmenstein_outcome>  (438) 
too moved

>  <fragmenstein_mode>  (438) 
expansion

>  <fragmenstein_error>  (438) 


$$$$
C20076-P40
     RDKit          3D

 40 43  0  0  0  0  0  0  0  0999 V2000
   -5.8866   -6.1435   17.2930 O   0  0  0  0  0  0  0  0  0  0  0  0
   -5.2282   -5.1202   17.2343 C   0  0  0  0  0  0  0  0  0  0  0  0
   -4.4696   -4.2273   18.6477 N   0  0  0  0  0  0  0  0  0  0  0  0
   -4.6053   -4.5129   20.5253 C   0  0  0  0  0  0  0  0  0  0  0  0
   -4.2345   -3.1838   21.9666 C   0  0  0  0  0  0  0  0  0  0  0  0
   -3.9279   -2.1108   23.3205 C   0  0  0  0  0  0  0  0  0  0  0  0
   -3.7802   -0.7373   22.9960 C   0  0  0  0  0  0  0  0  0  0  0  0
   -3.5399    0.3477   23.8576 C   0  0  0  0  0  0  0  0  0  0  0  0
   -3.3451    0.0448   25.1826 C   0  0  0  0  0  0  0  0  0  0  0  0
   -2.9833    0.8664   26.2212 N   0  0  0  0  0  0  0  0  0  0  0  0
   -2.6830    0.1221   27.3179 C   0  0  0  0  0  0  0  0  0  0  0  0
   -2.9190   -1.1893   26.9806 C   0  0  0  0  0  0  0  0  0  0  0  0
   -3.3983   -1.2649   25.6353 C   0  0  0  0  0  0  0  0  0  0  0  0
   -3.6890   -2.3191   24.6794 C   0  0  0  0  0  0  0  0  0  0  0  0
   -5.0061   -4.1486   15.7864 N   0  0  0  0  0  0  0  0  0  0  0  0
   -5.7492   -4.2674   14.1618 C   0  0  0  0  0  0  0  0  0  0  0  0
   -6.6780   -4.9025   13.3397 N   0  0  0  0  0  0  0  0  0  0  0  0
   -6.2090   -5.2626   11.9205 C   0  0  0  0  0  0  0  0  0  0  0  0
   -5.4593   -6.3347   11.1890 C   0  0  0  0  0  0  0  0  0  0  0  0
   -6.0995   -6.5598    9.9451 C   0  0  0  0  0  0  0  0  0  0  0  0
   -6.8535   -5.5045    9.1847 C   0  0  0  0  0  0  0  0  0  0  0  0
   -7.7266   -4.8348    9.9015 C   0  0  0  0  0  0  0  0  0  0  0  0
   -7.4937   -4.7746   11.5044 C   0  0  0  0  0  0  0  0  0  0  0  0
   -8.0213   -4.2997   13.6460 S   0  0  0  0  0  0  0  0  0  0  0  0
   -3.9167   -3.4685   18.3093 H   0  0  0  0  0  0  0  0  0  0  0  0
   -3.9005   -5.1988   20.9088 H   0  0  0  0  0  0  0  0  0  0  0  0
   -5.6470   -4.7866   20.6797 H   0  0  0  0  0  0  0  0  0  0  0  0
   -5.3245   -2.9253   22.0285 H   0  0  0  0  0  0  0  0  0  0  0  0
   -3.4939   -2.5195   21.5942 H   0  0  0  0  0  0  0  0  0  0  0  0
   -3.8612   -0.4318   21.9711 H   0  0  0  0  0  0  0  0  0  0  0  0
   -3.4565    1.3596   23.4784 H   0  0  0  0  0  0  0  0  0  0  0  0
   -2.8635    1.8659   26.1457 H   0  0  0  0  0  0  0  0  0  0  0  0
   -2.3037    0.5714   28.2247 H   0  0  0  0  0  0  0  0  0  0  0  0
   -2.6802   -1.9921   27.6503 H   0  0  0  0  0  0  0  0  0  0  0  0
   -3.5057   -3.2971   25.0407 H   0  0  0  0  0  0  0  0  0  0  0  0
   -4.3662   -3.4219   15.9792 H   0  0  0  0  0  0  0  0  0  0  0  0
   -5.0578   -7.2078   11.6703 H   0  0  0  0  0  0  0  0  0  0  0  0
   -6.1981   -7.6255    9.6378 H   0  0  0  0  0  0  0  0  0  0  0  0
   -7.2230   -5.3612    8.1534 H   0  0  0  0  0  0  0  0  0  0  0  0
   -8.6591   -4.4853    9.3839 H   0  0  0  0  0  0  0  0  0  0  0  0
  1  2  2  0
  2  3  1  0
  3  4  1  0
  4  5  1  0
  5  6  1  0
  6  7  2  0
  7  8  1  0
  8  9  2  0
  9 10  1  0
 10 11  1  0
 11 12  2  0
 12 13  1  0
 13 14  2  0
  2 15  1  0
 15 16  1  0
 16 17  2  0
 17 18  1  0
 18 19  2  0
 19 20  1  0
 20 21  2  0
 21 22  1  0
 22 23  2  0
 23 24  1  0
 14  6  1  0
 24 16  1  0
 13  9  1  0
 23 18  1  0
  3 25  1  0
  4 26  1  0
  4 27  1  0
  5 28  1  0
  5 29  1  0
  7 30  1  0
  8 31  1  0
 10 32  1  0
 11 33  1  0
 12 34  1  0
 14 35  1  0
 15 36  1  0
 19 37  1  0
 20 38  1  0
 21 39  1  0
 22 40  1  0
M  END
>  <Energy>  (439) 
714.13173554172192

>  <compound_id>  (439) 
20076

>  <target_id>  (439) 
1

>  <reference_id>  (439) 
40

>  <inspiration_ids>  (439) 
[69, 40]

>  <energy_score>  (439) 
692.3013201708005

>  <distance_score>  (439) 
8.267068452522388

>  <path>  (439) 
/opt/xchem-fragalysis-2/maxwin/BulkDock/SCRATCH/511016/C20076-P40/C20076-P40.minimised.mol

>  <scratch_subdir>  (439) 
/opt/xchem-fragalysis-2/maxwin/BulkDock/SCRATCH/511016/C20076-P40

>  <fragmenstein_runtime>  (439) 
32.453248262405396

>  <fragmenstein_outcome>  (439) 
too moved

>  <fragmenstein_mode>  (439) 
expansion

>  <fragmenstein_error>  (439) 


$$$$
C20077-P69
     RDKit          3D

 38 41  0  0  0  0  0  0  0  0999 V2000
   -7.1635   -6.7256   24.0382 O   0  0  0  0  0  0  0  0  0  0  0  0
   -6.8016   -6.4003   22.9292 C   0  0  0  0  0  0  0  0  0  0  0  0
   -5.4816   -5.7056   22.4634 N   0  0  0  0  0  0  0  0  0  0  0  0
   -4.1480   -5.0642   23.3750 C   0  0  0  0  0  0  0  0  0  0  0  0
   -2.3125   -5.5178   24.0478 C   0  0  0  0  0  0  0  0  0  0  0  0
   -1.4972   -6.2248   25.2846 C   0  0  0  0  0  0  0  0  0  0  0  0
   -1.7443   -5.5967   26.4205 C   0  0  0  0  0  0  0  0  0  0  0  0
   -1.4138   -5.7800   27.6808 C   0  0  0  0  0  0  0  0  0  0  0  0
   -0.9760   -6.9977   27.9511 C   0  0  0  0  0  0  0  0  0  0  0  0
   -0.8073   -7.5689   29.1382 N   0  0  0  0  0  0  0  0  0  0  0  0
   -0.3847   -8.8197   28.8531 C   0  0  0  0  0  0  0  0  0  0  0  0
   -0.1946   -9.0570   27.5235 C   0  0  0  0  0  0  0  0  0  0  0  0
   -0.6122   -7.8567   26.9205 C   0  0  0  0  0  0  0  0  0  0  0  0
   -1.1400   -7.5004   25.6724 C   0  0  0  0  0  0  0  0  0  0  0  0
   -8.0975   -6.7997   21.6755 C   0  0  0  0  0  0  0  0  0  0  0  0
   -9.2826   -7.4658   21.9241 C   0  0  0  0  0  0  0  0  0  0  0  0
  -10.1557   -7.7507   20.8426 C   0  0  0  0  0  0  0  0  0  0  0  0
   -9.9248   -7.4317   19.4594 C   0  0  0  0  0  0  0  0  0  0  0  0
   -8.7330   -6.7796   19.0685 C   0  0  0  0  0  0  0  0  0  0  0  0
   -7.5506   -6.3503   17.3042 S   0  0  0  0  0  0  0  0  0  0  0  0
   -6.0933   -6.4682   18.0009 C   0  0  0  0  0  0  0  0  0  0  0  0
   -6.3878   -6.4545   19.3186 N   0  0  0  0  0  0  0  0  0  0  0  0
   -7.9222   -6.4758   20.0870 C   0  0  0  0  0  0  0  0  0  0  0  0
   -5.5412   -5.5021   21.4683 H   0  0  0  0  0  0  0  0  0  0  0  0
   -3.8541   -4.6540   22.4176 H   0  0  0  0  0  0  0  0  0  0  0  0
   -4.5035   -4.1295   23.8106 H   0  0  0  0  0  0  0  0  0  0  0  0
   -2.0776   -6.4298   23.5385 H   0  0  0  0  0  0  0  0  0  0  0  0
   -1.6523   -4.7393   23.8632 H   0  0  0  0  0  0  0  0  0  0  0  0
   -2.5906   -6.3262   26.7094 H   0  0  0  0  0  0  0  0  0  0  0  0
   -1.8078   -5.0646   28.3822 H   0  0  0  0  0  0  0  0  0  0  0  0
   -0.8263   -7.1600   30.0648 H   0  0  0  0  0  0  0  0  0  0  0  0
   -0.2184   -9.3608   29.7543 H   0  0  0  0  0  0  0  0  0  0  0  0
    0.0620  -10.0016   27.0624 H   0  0  0  0  0  0  0  0  0  0  0  0
   -1.5930   -8.3933   25.2800 H   0  0  0  0  0  0  0  0  0  0  0  0
   -9.5308   -7.7717   22.9367 H   0  0  0  0  0  0  0  0  0  0  0  0
  -11.0798   -8.2875   21.0754 H   0  0  0  0  0  0  0  0  0  0  0  0
  -10.6786   -7.7839   18.7547 H   0  0  0  0  0  0  0  0  0  0  0  0
   -5.0650   -6.4606   17.6604 H   0  0  0  0  0  0  0  0  0  0  0  0
  1  2  2  0
  2  3  1  0
  3  4  1  0
  4  5  1  0
  5  6  1  0
  6  7  2  0
  7  8  1  0
  8  9  2  0
  9 10  1  0
 10 11  1  0
 11 12  2  0
 12 13  1  0
 13 14  2  0
  2 15  1  0
 15 16  2  0
 16 17  1  0
 17 18  2  0
 18 19  1  0
 19 20  1  0
 20 21  1  0
 21 22  2  0
 22 23  1  0
 14  6  1  0
 23 15  1  0
 13  9  1  0
 23 19  2  0
  3 24  1  0
  4 25  1  0
  4 26  1  0
  5 27  1  0
  5 28  1  0
  7 29  1  0
  8 30  1  0
 10 31  1  0
 11 32  1  0
 12 33  1  0
 14 34  1  0
 16 35  1  0
 17 36  1  0
 18 37  1  0
 21 38  1  0
M  END
>  <Energy>  (440) 
482.56704401823652

>  <compound_id>  (440) 
20077

>  <target_id>  (440) 
1

>  <reference_id>  (440) 
69

>  <inspiration_ids>  (440) 
[69, 40]

>  <energy_score>  (440) 
371.21434545227453

>  <distance_score>  (440) 
10.528807986885168

>  <path>  (440) 
/opt/xchem-fragalysis-2/maxwin/BulkDock/SCRATCH/511016/C20077-P69/C20077-P69.minimised.mol

>  <scratch_subdir>  (440) 
/opt/xchem-fragalysis-2/maxwin/BulkDock/SCRATCH/511016/C20077-P69

>  <fragmenstein_runtime>  (440) 
17.167324781417847

>  <fragmenstein_outcome>  (440) 
too moved

>  <fragmenstein_mode>  (440) 
expansion

>  <fragmenstein_error>  (440) 


$$$$
C20077-P40
     RDKit          3D

 38 41  0  0  0  0  0  0  0  0999 V2000
    0.9517    0.8364   15.8230 O   0  0  0  0  0  0  0  0  0  0  0  0
    1.0932   -0.3606   15.6953 C   0  0  0  0  0  0  0  0  0  0  0  0
    1.2563   -1.4605   17.2255 N   0  0  0  0  0  0  0  0  0  0  0  0
    1.2887   -1.0406   19.1901 C   0  0  0  0  0  0  0  0  0  0  0  0
    0.5211   -1.4247   21.2059 C   0  0  0  0  0  0  0  0  0  0  0  0
   -1.1680   -0.9980   22.3014 C   0  0  0  0  0  0  0  0  0  0  0  0
   -1.9724    0.4717   22.6789 C   0  0  0  0  0  0  0  0  0  0  0  0
   -2.5945    1.1049   23.8361 C   0  0  0  0  0  0  0  0  0  0  0  0
   -2.8151    0.2385   24.8453 C   0  0  0  0  0  0  0  0  0  0  0  0
   -3.1999    0.3795   26.1495 N   0  0  0  0  0  0  0  0  0  0  0  0
   -3.5468   -0.8390   26.6620 C   0  0  0  0  0  0  0  0  0  0  0  0
   -3.3740   -1.7562   25.6514 C   0  0  0  0  0  0  0  0  0  0  0  0
   -2.8151   -1.1003   24.4897 C   0  0  0  0  0  0  0  0  0  0  0  0
   -2.0713   -1.6408   23.1279 C   0  0  0  0  0  0  0  0  0  0  0  0
    0.9421   -0.8684   13.7058 C   0  0  0  0  0  0  0  0  0  0  0  0
    1.1613   -2.1949   13.5979 C   0  0  0  0  0  0  0  0  0  0  0  0
    0.1353   -2.7994   12.9146 C   0  0  0  0  0  0  0  0  0  0  0  0
   -0.9978   -2.0258   12.2386 C   0  0  0  0  0  0  0  0  0  0  0  0
   -1.4634   -0.5049   11.6707 C   0  0  0  0  0  0  0  0  0  0  0  0
   -2.5829   -0.0110    9.5002 S   0  0  0  0  0  0  0  0  0  0  0  0
   -1.3267   -1.1154    9.2153 C   0  0  0  0  0  0  0  0  0  0  0  0
    0.0980   -1.0827   10.3071 N   0  0  0  0  0  0  0  0  0  0  0  0
    0.1116   -0.4228   12.0447 C   0  0  0  0  0  0  0  0  0  0  0  0
    1.4501   -2.3885   16.9316 H   0  0  0  0  0  0  0  0  0  0  0  0
    2.2079   -1.6308   19.3582 H   0  0  0  0  0  0  0  0  0  0  0  0
    1.6660   -0.0010   19.1257 H   0  0  0  0  0  0  0  0  0  0  0  0
    1.2774   -0.8794   21.8049 H   0  0  0  0  0  0  0  0  0  0  0  0
    0.7772   -2.4686   21.4764 H   0  0  0  0  0  0  0  0  0  0  0  0
   -1.7997    1.4121   22.1048 H   0  0  0  0  0  0  0  0  0  0  0  0
   -2.7588    2.1725   23.8964 H   0  0  0  0  0  0  0  0  0  0  0  0
   -3.2638    1.2581   26.6419 H   0  0  0  0  0  0  0  0  0  0  0  0
   -3.9058   -0.9501   27.6749 H   0  0  0  0  0  0  0  0  0  0  0  0
   -3.5989   -2.7968   25.6830 H   0  0  0  0  0  0  0  0  0  0  0  0
   -1.9206   -2.6193   23.4322 H   0  0  0  0  0  0  0  0  0  0  0  0
    1.8225   -2.7373   14.2520 H   0  0  0  0  0  0  0  0  0  0  0  0
   -0.0218   -3.8727   13.0566 H   0  0  0  0  0  0  0  0  0  0  0  0
   -1.8348   -2.5860   12.6785 H   0  0  0  0  0  0  0  0  0  0  0  0
   -1.5533   -1.6930    8.3454 H   0  0  0  0  0  0  0  0  0  0  0  0
  1  2  2  0
  2  3  1  0
  3  4  1  0
  4  5  1  0
  5  6  1  0
  6  7  2  0
  7  8  1  0
  8  9  2  0
  9 10  1  0
 10 11  1  0
 11 12  2  0
 12 13  1  0
 13 14  2  0
  2 15  1  0
 15 16  2  0
 16 17  1  0
 17 18  2  0
 18 19  1  0
 19 20  1  0
 20 21  1  0
 21 22  2  0
 22 23  1  0
 14  6  1  0
 23 15  1  0
 13  9  1  0
 23 19  2  0
  3 24  1  0
  4 25  1  0
  4 26  1  0
  5 27  1  0
  5 28  1  0
  7 29  1  0
  8 30  1  0
 10 31  1  0
 11 32  1  0
 12 33  1  0
 14 34  1  0
 16 35  1  0
 17 36  1  0
 18 37  1  0
 21 38  1  0
M  END
>  <Energy>  (441) 
1310.925351781746

>  <compound_id>  (441) 
20077

>  <target_id>  (441) 
1

>  <reference_id>  (441) 
40

>  <inspiration_ids>  (441) 
[69, 40]

>  <energy_score>  (441) 
1199.5726532157853

>  <distance_score>  (441) 
9.30648696164292

>  <path>  (441) 
/opt/xchem-fragalysis-2/maxwin/BulkDock/SCRATCH/511016/C20077-P40/C20077-P40.minimised.mol

>  <scratch_subdir>  (441) 
/opt/xchem-fragalysis-2/maxwin/BulkDock/SCRATCH/511016/C20077-P40

>  <fragmenstein_runtime>  (441) 
18.1540949344635

>  <fragmenstein_outcome>  (441) 
too moved

>  <fragmenstein_mode>  (441) 
expansion

>  <fragmenstein_error>  (441) 


$$$$
C20081-P69
     RDKit          3D

 36 39  0  0  0  0  0  0  0  0999 V2000
   -7.5921   -5.7552   16.3156 O   0  0  0  0  0  0  0  0  0  0  0  0
   -6.4043   -5.5648   16.4393 C   0  0  0  0  0  0  0  0  0  0  0  0
   -5.3811   -4.4182   15.3735 C   0  0  0  0  0  0  0  0  0  0  0  0
   -5.1762   -4.1299   13.3178 S   0  0  0  0  0  0  0  0  0  0  0  0
   -4.0220   -4.3515   10.9349 C   0  0  0  0  0  0  0  0  0  0  0  0
   -3.9552   -5.1423    9.4968 N   0  0  0  0  0  0  0  0  0  0  0  0
   -4.1622   -4.2348    7.8930 C   0  0  0  0  0  0  0  0  0  0  0  0
   -5.5013   -3.8586    7.0960 C   0  0  0  0  0  0  0  0  0  0  0  0
   -5.6480   -2.9756    6.0185 C   0  0  0  0  0  0  0  0  0  0  0  0
   -4.5827   -2.1804    5.7170 C   0  0  0  0  0  0  0  0  0  0  0  0
   -3.5024   -2.2022    6.5881 C   0  0  0  0  0  0  0  0  0  0  0  0
   -3.4651   -3.1309    7.6646 C   0  0  0  0  0  0  0  0  0  0  0  0
   -3.2931   -2.6019    9.1912 S   0  0  0  0  0  0  0  0  0  0  0  0
   -5.3698   -6.1576   17.4991 N   0  0  0  0  0  0  0  0  0  0  0  0
   -5.5452   -7.1424   18.5265 C   0  0  0  0  0  0  0  0  0  0  0  0
   -6.7590   -7.5361   19.0684 C   0  0  0  0  0  0  0  0  0  0  0  0
   -6.8210   -8.1652   20.3323 C   0  0  0  0  0  0  0  0  0  0  0  0
   -5.6255   -8.4966   20.9839 C   0  0  0  0  0  0  0  0  0  0  0  0
   -5.3991   -9.1105   22.1931 N   0  0  0  0  0  0  0  0  0  0  0  0
   -4.0648   -9.3898   22.3309 C   0  0  0  0  0  0  0  0  0  0  0  0
   -3.4082   -8.8614   21.2453 C   0  0  0  0  0  0  0  0  0  0  0  0
   -4.3857   -8.2596   20.4043 C   0  0  0  0  0  0  0  0  0  0  0  0
   -4.3582   -7.5546   19.1806 C   0  0  0  0  0  0  0  0  0  0  0  0
   -5.9456   -3.4865   15.4618 H   0  0  0  0  0  0  0  0  0  0  0  0
   -4.4852   -4.3210   15.9701 H   0  0  0  0  0  0  0  0  0  0  0  0
   -6.4460   -4.3278    7.4028 H   0  0  0  0  0  0  0  0  0  0  0  0
   -6.5947   -2.8903    5.4956 H   0  0  0  0  0  0  0  0  0  0  0  0
   -4.6496   -1.4292    4.9365 H   0  0  0  0  0  0  0  0  0  0  0  0
   -2.8533   -1.3372    6.6208 H   0  0  0  0  0  0  0  0  0  0  0  0
   -4.4617   -5.7228   17.3671 H   0  0  0  0  0  0  0  0  0  0  0  0
   -7.6904   -7.2739   18.5707 H   0  0  0  0  0  0  0  0  0  0  0  0
   -7.7861   -8.3996   20.7728 H   0  0  0  0  0  0  0  0  0  0  0  0
   -6.1232   -9.3950   22.8392 H   0  0  0  0  0  0  0  0  0  0  0  0
   -3.7273   -9.9295   23.2024 H   0  0  0  0  0  0  0  0  0  0  0  0
   -2.3480   -8.9187   21.0513 H   0  0  0  0  0  0  0  0  0  0  0  0
   -3.4004   -7.3412   18.7269 H   0  0  0  0  0  0  0  0  0  0  0  0
  1  2  2  0
  2  3  1  0
  3  4  1  0
  4  5  1  0
  5  6  2  0
  6  7  1  0
  7  8  2  0
  8  9  1  0
  9 10  2  0
 10 11  1  0
 11 12  2  0
 12 13  1  0
  2 14  1  0
 14 15  1  0
 15 16  2  0
 16 17  1  0
 17 18  2  0
 18 19  1  0
 19 20  1  0
 20 21  2  0
 21 22  1  0
 22 23  2  0
 13  5  1  0
 23 15  1  0
 12  7  1  0
 22 18  1  0
  3 24  1  0
  3 25  1  0
  8 26  1  0
  9 27  1  0
 10 28  1  0
 11 29  1  0
 14 30  1  0
 16 31  1  0
 17 32  1  0
 19 33  1  0
 20 34  1  0
 21 35  1  0
 23 36  1  0
M  END
>  <Energy>  (442) 
941.22059799557178

>  <compound_id>  (442) 
20081

>  <target_id>  (442) 
1

>  <reference_id>  (442) 
69

>  <inspiration_ids>  (442) 
[69, 40]

>  <energy_score>  (442) 
866.7591886335379

>  <distance_score>  (442) 
9.833298797801529

>  <path>  (442) 
/opt/xchem-fragalysis-2/maxwin/BulkDock/SCRATCH/511016/C20081-P69/C20081-P69.minimised.mol

>  <scratch_subdir>  (442) 
/opt/xchem-fragalysis-2/maxwin/BulkDock/SCRATCH/511016/C20081-P69

>  <fragmenstein_runtime>  (442) 
14.19412899017334

>  <fragmenstein_outcome>  (442) 
too moved

>  <fragmenstein_mode>  (442) 
expansion

>  <fragmenstein_error>  (442) 


$$$$
C20081-P40
     RDKit          3D

 36 39  0  0  0  0  0  0  0  0999 V2000
   -7.4478   -6.0201   17.9305 O   0  0  0  0  0  0  0  0  0  0  0  0
   -6.5053   -5.4008   18.3600 C   0  0  0  0  0  0  0  0  0  0  0  0
   -5.0983   -5.1534   17.3799 C   0  0  0  0  0  0  0  0  0  0  0  0
   -4.5612   -4.3000   15.9805 S   0  0  0  0  0  0  0  0  0  0  0  0
   -4.6045   -4.5207   14.0003 C   0  0  0  0  0  0  0  0  0  0  0  0
   -5.4812   -4.3187   13.0711 N   0  0  0  0  0  0  0  0  0  0  0  0
   -5.1581   -5.4946   11.6952 C   0  0  0  0  0  0  0  0  0  0  0  0
   -5.5148   -7.0167   11.3535 C   0  0  0  0  0  0  0  0  0  0  0  0
   -5.0128   -8.0562   10.6387 C   0  0  0  0  0  0  0  0  0  0  0  0
   -3.9407   -7.6184    9.9928 C   0  0  0  0  0  0  0  0  0  0  0  0
   -3.6477   -5.9999    9.7818 C   0  0  0  0  0  0  0  0  0  0  0  0
   -4.0908   -5.0060   10.9335 C   0  0  0  0  0  0  0  0  0  0  0  0
   -2.6684   -4.5640   12.7813 S   0  0  0  0  0  0  0  0  0  0  0  0
   -6.2474   -4.8261   19.7528 N   0  0  0  0  0  0  0  0  0  0  0  0
   -6.9857   -4.9396   20.9495 C   0  0  0  0  0  0  0  0  0  0  0  0
   -7.8778   -5.9736   21.1864 C   0  0  0  0  0  0  0  0  0  0  0  0
   -8.2473   -6.3376   22.5033 C   0  0  0  0  0  0  0  0  0  0  0  0
   -7.7573   -5.5858   23.5799 C   0  0  0  0  0  0  0  0  0  0  0  0
   -7.9414   -5.7123   24.9383 N   0  0  0  0  0  0  0  0  0  0  0  0
   -7.3548   -4.6599   25.5926 C   0  0  0  0  0  0  0  0  0  0  0  0
   -6.7375   -3.8730   24.6467 C   0  0  0  0  0  0  0  0  0  0  0  0
   -6.9335   -4.4891   23.3828 C   0  0  0  0  0  0  0  0  0  0  0  0
   -6.4979   -4.2262   22.0693 C   0  0  0  0  0  0  0  0  0  0  0  0
   -4.5541   -4.4753   18.0263 H   0  0  0  0  0  0  0  0  0  0  0  0
   -4.5737   -6.1025   17.3338 H   0  0  0  0  0  0  0  0  0  0  0  0
   -6.3760   -7.5542   11.7447 H   0  0  0  0  0  0  0  0  0  0  0  0
   -5.3727   -9.0726   10.6568 H   0  0  0  0  0  0  0  0  0  0  0  0
   -3.3995   -8.4745    9.5873 H   0  0  0  0  0  0  0  0  0  0  0  0
   -3.1828   -5.6003    8.9151 H   0  0  0  0  0  0  0  0  0  0  0  0
   -5.3875   -4.2903   19.7411 H   0  0  0  0  0  0  0  0  0  0  0  0
   -8.2301   -6.5920   20.3626 H   0  0  0  0  0  0  0  0  0  0  0  0
   -8.9025   -7.1895   22.6636 H   0  0  0  0  0  0  0  0  0  0  0  0
   -8.4918   -6.4395   25.3758 H   0  0  0  0  0  0  0  0  0  0  0  0
   -7.4371   -4.5587   26.6668 H   0  0  0  0  0  0  0  0  0  0  0  0
   -6.1844   -2.9634   24.8461 H   0  0  0  0  0  0  0  0  0  0  0  0
   -5.7320   -3.4778   21.9696 H   0  0  0  0  0  0  0  0  0  0  0  0
  1  2  2  0
  2  3  1  0
  3  4  1  0
  4  5  1  0
  5  6  2  0
  6  7  1  0
  7  8  2  0
  8  9  1  0
  9 10  2  0
 10 11  1  0
 11 12  2  0
 12 13  1  0
  2 14  1  0
 14 15  1  0
 15 16  2  0
 16 17  1  0
 17 18  2  0
 18 19  1  0
 19 20  1  0
 20 21  2  0
 21 22  1  0
 22 23  2  0
 13  5  1  0
 23 15  1  0
 12  7  1  0
 22 18  1  0
  3 24  1  0
  3 25  1  0
  8 26  1  0
  9 27  1  0
 10 28  1  0
 11 29  1  0
 14 30  1  0
 16 31  1  0
 17 32  1  0
 19 33  1  0
 20 34  1  0
 21 35  1  0
 23 36  1  0
M  END
>  <Energy>  (443) 
410.19785120364929

>  <compound_id>  (443) 
20081

>  <target_id>  (443) 
1

>  <reference_id>  (443) 
40

>  <inspiration_ids>  (443) 
[69, 40]

>  <energy_score>  (443) 
335.7364418416304

>  <distance_score>  (443) 
10.147187037812756

>  <path>  (443) 
/opt/xchem-fragalysis-2/maxwin/BulkDock/SCRATCH/511016/C20081-P40/C20081-P40.minimised.mol

>  <scratch_subdir>  (443) 
/opt/xchem-fragalysis-2/maxwin/BulkDock/SCRATCH/511016/C20081-P40

>  <fragmenstein_runtime>  (443) 
19.331323385238647

>  <fragmenstein_outcome>  (443) 
too moved

>  <fragmenstein_mode>  (443) 
expansion

>  <fragmenstein_error>  (443) 


$$$$
C20082-P69
     RDKit          3D

 40 43  0  0  0  0  0  0  0  0999 V2000
   -4.3379    0.1620   23.4954 O   0  0  0  0  0  0  0  0  0  0  0  0
   -4.1119   -0.5305   22.5273 C   0  0  0  0  0  0  0  0  0  0  0  0
   -4.4446   -0.0365   20.7017 N   0  0  0  0  0  0  0  0  0  0  0  0
   -5.3769    1.6434   19.8349 C   0  0  0  0  0  0  0  0  0  0  0  0
   -5.6813    1.8638   17.7781 C   0  0  0  0  0  0  0  0  0  0  0  0
   -6.2038    1.4599   15.8667 C   0  0  0  0  0  0  0  0  0  0  0  0
   -5.9635    0.4117   14.9007 N   0  0  0  0  0  0  0  0  0  0  0  0
   -6.4405    0.1781   13.2148 C   0  0  0  0  0  0  0  0  0  0  0  0
   -6.2534   -0.4849   11.9644 C   0  0  0  0  0  0  0  0  0  0  0  0
   -6.9106   -0.4224   10.4005 C   0  0  0  0  0  0  0  0  0  0  0  0
   -5.9020   -0.6789    8.9142 Cl  0  0  0  0  0  0  0  0  0  0  0  0
   -7.9752    0.2570   10.0818 C   0  0  0  0  0  0  0  0  0  0  0  0
   -7.9098    1.1158   11.0964 C   0  0  0  0  0  0  0  0  0  0  0  0
   -7.0662    1.2521   12.7787 C   0  0  0  0  0  0  0  0  0  0  0  0
   -7.2515    2.5409   14.5065 S   0  0  0  0  0  0  0  0  0  0  0  0
   -3.5085   -2.3271   22.5919 N   0  0  0  0  0  0  0  0  0  0  0  0
   -3.2324   -3.5295   24.0723 C   0  0  0  0  0  0  0  0  0  0  0  0
   -2.4558   -4.7578   24.8871 C   0  0  0  0  0  0  0  0  0  0  0  0
   -1.7111   -5.4454   26.2455 C   0  0  0  0  0  0  0  0  0  0  0  0
   -0.9235   -6.3247   25.5956 C   0  0  0  0  0  0  0  0  0  0  0  0
    0.2889   -6.5566   25.9391 N   0  0  0  0  0  0  0  0  0  0  0  0
    1.1253   -6.0413   24.9740 C   0  0  0  0  0  0  0  0  0  0  0  0
    0.4361   -5.9048   23.8122 C   0  0  0  0  0  0  0  0  0  0  0  0
   -0.9693   -6.0940   24.1843 C   0  0  0  0  0  0  0  0  0  0  0  0
   -2.3758   -4.9443   23.7852 C   0  0  0  0  0  0  0  0  0  0  0  0
   -4.2437   -0.8345   20.0804 H   0  0  0  0  0  0  0  0  0  0  0  0
   -4.8731    2.5285   20.2447 H   0  0  0  0  0  0  0  0  0  0  0  0
   -6.4570    1.7326   20.0725 H   0  0  0  0  0  0  0  0  0  0  0  0
   -6.4878    1.1432   17.9621 H   0  0  0  0  0  0  0  0  0  0  0  0
   -4.6777    1.5801   17.4589 H   0  0  0  0  0  0  0  0  0  0  0  0
   -5.1630   -0.5404   11.7694 H   0  0  0  0  0  0  0  0  0  0  0  0
   -8.4894    0.3870    9.1518 H   0  0  0  0  0  0  0  0  0  0  0  0
   -8.7355    1.8868   11.0128 H   0  0  0  0  0  0  0  0  0  0  0  0
   -3.4789   -2.6930   21.6942 H   0  0  0  0  0  0  0  0  0  0  0  0
   -2.4396   -6.0658   24.8987 H   0  0  0  0  0  0  0  0  0  0  0  0
   -1.4365   -4.8722   27.1178 H   0  0  0  0  0  0  0  0  0  0  0  0
    0.2677   -6.3264   26.8750 H   0  0  0  0  0  0  0  0  0  0  0  0
    2.0389   -5.5862   25.2581 H   0  0  0  0  0  0  0  0  0  0  0  0
    0.7431   -5.2597   22.9925 H   0  0  0  0  0  0  0  0  0  0  0  0
   -3.1179   -5.4529   23.1056 H   0  0  0  0  0  0  0  0  0  0  0  0
  1  2  2  0
  2  3  1  0
  3  4  1  0
  4  5  1  0
  5  6  1  0
  6  7  2  0
  7  8  1  0
  8  9  2  0
  9 10  1  0
 10 11  1  0
 10 12  2  0
 12 13  1  0
 13 14  2  0
 14 15  1  0
  2 16  1  0
 16 17  1  0
 17 18  2  0
 18 19  1  0
 19 20  2  0
 20 21  1  0
 21 22  1  0
 22 23  2  0
 23 24  1  0
 24 25  2  0
 15  6  1  0
 25 17  1  0
 14  8  1  0
 24 20  1  0
  3 26  1  0
  4 27  1  0
  4 28  1  0
  5 29  1  0
  5 30  1  0
  9 31  1  0
 12 32  1  0
 13 33  1  0
 16 34  1  0
 18 35  1  0
 19 36  1  0
 21 37  1  0
 22 38  1  0
 23 39  1  0
 25 40  1  0
M  END
>  <Energy>  (444) 
1492.0278592047728

>  <compound_id>  (444) 
20082

>  <target_id>  (444) 
1

>  <reference_id>  (444) 
69

>  <inspiration_ids>  (444) 
[69, 40]

>  <energy_score>  (444) 
1450.98721481484

>  <distance_score>  (444) 
7.148872631824453

>  <path>  (444) 
/opt/xchem-fragalysis-2/maxwin/BulkDock/SCRATCH/511016/C20082-P69/C20082-P69.minimised.mol

>  <scratch_subdir>  (444) 
/opt/xchem-fragalysis-2/maxwin/BulkDock/SCRATCH/511016/C20082-P69

>  <fragmenstein_runtime>  (444) 
23.575130462646484

>  <fragmenstein_outcome>  (444) 
too moved

>  <fragmenstein_mode>  (444) 
expansion

>  <fragmenstein_error>  (444) 


$$$$
C20082-P40
     RDKit          3D

 40 43  0  0  0  0  0  0  0  0999 V2000
    3.0128   -7.8752   15.5603 O   0  0  0  0  0  0  0  0  0  0  0  0
    1.9549   -8.2686   15.9628 C   0  0  0  0  0  0  0  0  0  0  0  0
    0.2238   -7.8671   15.2817 N   0  0  0  0  0  0  0  0  0  0  0  0
   -0.3738   -6.8178   13.6587 C   0  0  0  0  0  0  0  0  0  0  0  0
   -0.5372   -7.1781   11.6497 C   0  0  0  0  0  0  0  0  0  0  0  0
   -1.6192   -6.7716   10.0054 C   0  0  0  0  0  0  0  0  0  0  0  0
   -1.6633   -6.9198    8.4765 N   0  0  0  0  0  0  0  0  0  0  0  0
   -2.7080   -5.5116    7.6032 C   0  0  0  0  0  0  0  0  0  0  0  0
   -2.9160   -4.8885    6.3187 C   0  0  0  0  0  0  0  0  0  0  0  0
   -3.8256   -3.6368    6.0316 C   0  0  0  0  0  0  0  0  0  0  0  0
   -4.6793   -3.2706    4.5548 Cl  0  0  0  0  0  0  0  0  0  0  0  0
   -3.8931   -2.6536    6.9209 C   0  0  0  0  0  0  0  0  0  0  0  0
   -3.3072   -3.0493    8.0599 C   0  0  0  0  0  0  0  0  0  0  0  0
   -3.1984   -4.5139    8.4089 C   0  0  0  0  0  0  0  0  0  0  0  0
   -3.4559   -5.5798    9.6960 S   0  0  0  0  0  0  0  0  0  0  0  0
    1.6782   -9.2541   17.0342 N   0  0  0  0  0  0  0  0  0  0  0  0
    2.5756  -10.0799   17.8200 C   0  0  0  0  0  0  0  0  0  0  0  0
    2.3729  -11.4448   18.0552 C   0  0  0  0  0  0  0  0  0  0  0  0
    2.9097  -12.0792   19.1979 C   0  0  0  0  0  0  0  0  0  0  0  0
    3.7410  -11.3339   20.0377 C   0  0  0  0  0  0  0  0  0  0  0  0
    4.2739  -11.6331   21.2721 N   0  0  0  0  0  0  0  0  0  0  0  0
    5.1499  -10.6552   21.6551 C   0  0  0  0  0  0  0  0  0  0  0  0
    5.1656   -9.7075   20.6584 C   0  0  0  0  0  0  0  0  0  0  0  0
    4.1848  -10.0648   19.6825 C   0  0  0  0  0  0  0  0  0  0  0  0
    3.6074   -9.4363   18.5403 C   0  0  0  0  0  0  0  0  0  0  0  0
   -0.4834   -8.4060   15.7691 H   0  0  0  0  0  0  0  0  0  0  0  0
    0.1470   -5.8651   13.7782 H   0  0  0  0  0  0  0  0  0  0  0  0
   -1.3075   -6.3628   13.8433 H   0  0  0  0  0  0  0  0  0  0  0  0
   -0.5746   -8.2821   11.6260 H   0  0  0  0  0  0  0  0  0  0  0  0
    0.4653   -6.9389   11.2651 H   0  0  0  0  0  0  0  0  0  0  0  0
   -2.5517   -5.4287    5.4616 H   0  0  0  0  0  0  0  0  0  0  0  0
   -4.3091   -1.6724    6.7592 H   0  0  0  0  0  0  0  0  0  0  0  0
   -3.2747   -2.2758    8.8110 H   0  0  0  0  0  0  0  0  0  0  0  0
    0.6829   -9.4274   17.0678 H   0  0  0  0  0  0  0  0  0  0  0  0
    1.6348  -11.9851   17.4652 H   0  0  0  0  0  0  0  0  0  0  0  0
    2.6109  -13.0927   19.4455 H   0  0  0  0  0  0  0  0  0  0  0  0
    4.0738  -12.4754   21.7940 H   0  0  0  0  0  0  0  0  0  0  0  0
    5.6981  -10.7310   22.5842 H   0  0  0  0  0  0  0  0  0  0  0  0
    5.7813   -8.8195   20.6627 H   0  0  0  0  0  0  0  0  0  0  0  0
    3.8760   -8.4116   18.3003 H   0  0  0  0  0  0  0  0  0  0  0  0
  1  2  2  0
  2  3  1  0
  3  4  1  0
  4  5  1  0
  5  6  1  0
  6  7  2  0
  7  8  1  0
  8  9  2  0
  9 10  1  0
 10 11  1  0
 10 12  2  0
 12 13  1  0
 13 14  2  0
 14 15  1  0
  2 16  1  0
 16 17  1  0
 17 18  2  0
 18 19  1  0
 19 20  2  0
 20 21  1  0
 21 22  1  0
 22 23  2  0
 23 24  1  0
 24 25  2  0
 15  6  1  0
 25 17  1  0
 14  8  1  0
 24 20  1  0
  3 26  1  0
  4 27  1  0
  4 28  1  0
  5 29  1  0
  5 30  1  0
  9 31  1  0
 12 32  1  0
 13 33  1  0
 16 34  1  0
 18 35  1  0
 19 36  1  0
 21 37  1  0
 22 38  1  0
 23 39  1  0
 25 40  1  0
M  END
>  <Energy>  (445) 
581.64248902724432

>  <compound_id>  (445) 
20082

>  <target_id>  (445) 
1

>  <reference_id>  (445) 
40

>  <inspiration_ids>  (445) 
[69, 40]

>  <energy_score>  (445) 
540.6018446373255

>  <distance_score>  (445) 
10.290805434004021

>  <path>  (445) 
/opt/xchem-fragalysis-2/maxwin/BulkDock/SCRATCH/511016/C20082-P40/C20082-P40.minimised.mol

>  <scratch_subdir>  (445) 
/opt/xchem-fragalysis-2/maxwin/BulkDock/SCRATCH/511016/C20082-P40

>  <fragmenstein_runtime>  (445) 
14.704216241836548

>  <fragmenstein_outcome>  (445) 
too moved

>  <fragmenstein_mode>  (445) 
expansion

>  <fragmenstein_error>  (445) 


$$$$
C20083-P69
     RDKit          3D

 37 40  0  0  0  0  0  0  0  0999 V2000
   -3.9673   -5.5376   10.7568 O   0  0  0  0  0  0  0  0  0  0  0  0
   -3.3236   -5.8510    9.8289 C   0  0  0  0  0  0  0  0  0  0  0  0
   -3.4159   -5.1565    8.1947 N   0  0  0  0  0  0  0  0  0  0  0  0
   -4.2360   -3.9485    7.6470 C   0  0  0  0  0  0  0  0  0  0  0  0
   -4.1311   -3.1243    6.3354 C   0  0  0  0  0  0  0  0  0  0  0  0
   -3.9662   -1.8068    6.4718 N   0  0  0  0  0  0  0  0  0  0  0  0
   -5.2363   -1.2528    6.3630 C   0  0  0  0  0  0  0  0  0  0  0  0
   -5.7366   -0.1155    7.0204 C   0  0  0  0  0  0  0  0  0  0  0  0
   -7.0439    0.3036    6.7655 C   0  0  0  0  0  0  0  0  0  0  0  0
   -7.6505    1.7001    7.5667 Cl  0  0  0  0  0  0  0  0  0  0  0  0
   -7.8555   -0.3815    5.8683 C   0  0  0  0  0  0  0  0  0  0  0  0
   -7.3838   -1.5230    5.2128 C   0  0  0  0  0  0  0  0  0  0  0  0
   -6.0824   -1.9526    5.5052 C   0  0  0  0  0  0  0  0  0  0  0  0
   -5.2167   -3.3435    4.9720 S   0  0  0  0  0  0  0  0  0  0  0  0
   -2.1255   -6.8777    9.8024 N   0  0  0  0  0  0  0  0  0  0  0  0
   -1.4697   -7.5842   10.8656 C   0  0  0  0  0  0  0  0  0  0  0  0
   -1.5186   -8.9608   11.0527 C   0  0  0  0  0  0  0  0  0  0  0  0
   -0.8732   -9.5957   12.1550 C   0  0  0  0  0  0  0  0  0  0  0  0
   -0.0991   -8.8244   13.0375 C   0  0  0  0  0  0  0  0  0  0  0  0
    0.5972   -9.1710   14.1752 N   0  0  0  0  0  0  0  0  0  0  0  0
    1.3555   -8.1135   14.5966 C   0  0  0  0  0  0  0  0  0  0  0  0
    1.0236   -7.0287   13.8106 C   0  0  0  0  0  0  0  0  0  0  0  0
    0.0658   -7.4561   12.8446 C   0  0  0  0  0  0  0  0  0  0  0  0
   -0.6579   -6.8379   11.7775 C   0  0  0  0  0  0  0  0  0  0  0  0
   -2.7004   -5.5488    7.6223 H   0  0  0  0  0  0  0  0  0  0  0  0
   -5.3064   -3.8935    7.8351 H   0  0  0  0  0  0  0  0  0  0  0  0
   -3.6176   -3.1893    8.1541 H   0  0  0  0  0  0  0  0  0  0  0  0
   -5.1107    0.3982    7.7398 H   0  0  0  0  0  0  0  0  0  0  0  0
   -8.8715   -0.0420    5.6775 H   0  0  0  0  0  0  0  0  0  0  0  0
   -8.0214   -2.0809    4.5332 H   0  0  0  0  0  0  0  0  0  0  0  0
   -1.7129   -6.8776    8.8820 H   0  0  0  0  0  0  0  0  0  0  0  0
   -2.1125   -9.5691   10.3754 H   0  0  0  0  0  0  0  0  0  0  0  0
   -0.9838  -10.6661   12.2991 H   0  0  0  0  0  0  0  0  0  0  0  0
    0.6015  -10.0949   14.5826 H   0  0  0  0  0  0  0  0  0  0  0  0
    2.0354   -8.2241   15.4274 H   0  0  0  0  0  0  0  0  0  0  0  0
    1.4282   -6.0307   13.9077 H   0  0  0  0  0  0  0  0  0  0  0  0
   -0.5549   -5.7675   11.6444 H   0  0  0  0  0  0  0  0  0  0  0  0
  1  2  2  0
  2  3  1  0
  3  4  1  0
  4  5  1  0
  5  6  2  0
  6  7  1  0
  7  8  2  0
  8  9  1  0
  9 10  1  0
  9 11  2  0
 11 12  1  0
 12 13  2  0
 13 14  1  0
  2 15  1  0
 15 16  1  0
 16 17  2  0
 17 18  1  0
 18 19  2  0
 19 20  1  0
 20 21  1  0
 21 22  2  0
 22 23  1  0
 23 24  2  0
 14  5  1  0
 24 16  1  0
 13  7  1  0
 23 19  1  0
  3 25  1  0
  4 26  1  0
  4 27  1  0
  8 28  1  0
 11 29  1  0
 12 30  1  0
 15 31  1  0
 17 32  1  0
 18 33  1  0
 20 34  1  0
 21 35  1  0
 22 36  1  0
 24 37  1  0
M  END
>  <Energy>  (446) 
104.77085004463278

>  <compound_id>  (446) 
20083

>  <target_id>  (446) 
1

>  <reference_id>  (446) 
69

>  <inspiration_ids>  (446) 
[69, 40]

>  <energy_score>  (446) 
84.66841974254044

>  <distance_score>  (446) 
14.001924633213498

>  <path>  (446) 
/opt/xchem-fragalysis-2/maxwin/BulkDock/SCRATCH/511016/C20083-P69/C20083-P69.minimised.mol

>  <scratch_subdir>  (446) 
/opt/xchem-fragalysis-2/maxwin/BulkDock/SCRATCH/511016/C20083-P69

>  <fragmenstein_runtime>  (446) 
26.624279022216797

>  <fragmenstein_outcome>  (446) 
too moved

>  <fragmenstein_mode>  (446) 
expansion

>  <fragmenstein_error>  (446) 


$$$$
C20083-P40
     RDKit          3D

 37 40  0  0  0  0  0  0  0  0999 V2000
    6.8549   -2.2840   16.0137 O   0  0  0  0  0  0  0  0  0  0  0  0
    6.1118   -1.3929   15.8095 C   0  0  0  0  0  0  0  0  0  0  0  0
    5.5471   -0.8684   14.4946 N   0  0  0  0  0  0  0  0  0  0  0  0
    5.6882   -1.3864   13.0938 C   0  0  0  0  0  0  0  0  0  0  0  0
    4.4958   -0.9901   12.1865 C   0  0  0  0  0  0  0  0  0  0  0  0
    3.9334   -1.6019   11.1319 N   0  0  0  0  0  0  0  0  0  0  0  0
    2.6080   -1.1230   10.9368 C   0  0  0  0  0  0  0  0  0  0  0  0
    1.5988   -1.4819    9.9651 C   0  0  0  0  0  0  0  0  0  0  0  0
    0.2592   -1.0825   10.2755 C   0  0  0  0  0  0  0  0  0  0  0  0
   -1.6616   -1.1760    8.8906 Cl  0  0  0  0  0  0  0  0  0  0  0  0
   -0.0012   -0.5228   11.6642 C   0  0  0  0  0  0  0  0  0  0  0  0
    1.0108    0.0159   12.4335 C   0  0  0  0  0  0  0  0  0  0  0  0
    2.2809   -0.2311   11.9606 C   0  0  0  0  0  0  0  0  0  0  0  0
    3.7153    0.5058   12.5319 S   0  0  0  0  0  0  0  0  0  0  0  0
    5.3835   -0.4715   16.7930 N   0  0  0  0  0  0  0  0  0  0  0  0
    5.3255   -0.4923   18.2229 C   0  0  0  0  0  0  0  0  0  0  0  0
    4.3824    0.3467   18.8477 C   0  0  0  0  0  0  0  0  0  0  0  0
    4.1923    0.3964   20.2469 C   0  0  0  0  0  0  0  0  0  0  0  0
    5.0125   -0.4074   21.0383 C   0  0  0  0  0  0  0  0  0  0  0  0
    5.0524   -0.5661   22.4058 N   0  0  0  0  0  0  0  0  0  0  0  0
    6.0873   -1.3914   22.7516 C   0  0  0  0  0  0  0  0  0  0  0  0
    6.6856   -1.8160   21.5846 C   0  0  0  0  0  0  0  0  0  0  0  0
    5.9929   -1.2307   20.4819 C   0  0  0  0  0  0  0  0  0  0  0  0
    6.1273   -1.2932   19.0568 C   0  0  0  0  0  0  0  0  0  0  0  0
    5.0056   -0.0429   14.6704 H   0  0  0  0  0  0  0  0  0  0  0  0
    5.7783   -2.4751   13.1477 H   0  0  0  0  0  0  0  0  0  0  0  0
    6.6142   -0.9689   12.6872 H   0  0  0  0  0  0  0  0  0  0  0  0
    1.8582   -2.0719    9.0967 H   0  0  0  0  0  0  0  0  0  0  0  0
   -1.0296   -0.4093   11.9884 H   0  0  0  0  0  0  0  0  0  0  0  0
    0.8380    0.6513   13.2895 H   0  0  0  0  0  0  0  0  0  0  0  0
    4.7616    0.1296   16.2881 H   0  0  0  0  0  0  0  0  0  0  0  0
    3.7273    0.9689   18.2392 H   0  0  0  0  0  0  0  0  0  0  0  0
    3.4201    1.0309   20.6712 H   0  0  0  0  0  0  0  0  0  0  0  0
    4.4427   -0.0850   23.0512 H   0  0  0  0  0  0  0  0  0  0  0  0
    6.3146   -1.6012   23.7877 H   0  0  0  0  0  0  0  0  0  0  0  0
    7.5424   -2.4741   21.5199 H   0  0  0  0  0  0  0  0  0  0  0  0
    6.8792   -1.9475   18.6242 H   0  0  0  0  0  0  0  0  0  0  0  0
  1  2  2  0
  2  3  1  0
  3  4  1  0
  4  5  1  0
  5  6  2  0
  6  7  1  0
  7  8  2  0
  8  9  1  0
  9 10  1  0
  9 11  2  0
 11 12  1  0
 12 13  2  0
 13 14  1  0
  2 15  1  0
 15 16  1  0
 16 17  2  0
 17 18  1  0
 18 19  2  0
 19 20  1  0
 20 21  1  0
 21 22  2  0
 22 23  1  0
 23 24  2  0
 14  5  1  0
 24 16  1  0
 13  7  1  0
 23 19  1  0
  3 25  1  0
  4 26  1  0
  4 27  1  0
  8 28  1  0
 11 29  1  0
 12 30  1  0
 15 31  1  0
 17 32  1  0
 18 33  1  0
 20 34  1  0
 21 35  1  0
 22 36  1  0
 24 37  1  0
M  END
>  <Energy>  (447) 
95.110431105408068

>  <compound_id>  (447) 
20083

>  <target_id>  (447) 
1

>  <reference_id>  (447) 
40

>  <inspiration_ids>  (447) 
[69, 40]

>  <energy_score>  (447) 
75.00800080331271

>  <distance_score>  (447) 
11.995756521712261

>  <path>  (447) 
/opt/xchem-fragalysis-2/maxwin/BulkDock/SCRATCH/511016/C20083-P40/C20083-P40.minimised.mol

>  <scratch_subdir>  (447) 
/opt/xchem-fragalysis-2/maxwin/BulkDock/SCRATCH/511016/C20083-P40

>  <fragmenstein_runtime>  (447) 
22.071990489959717

>  <fragmenstein_outcome>  (447) 
too moved

>  <fragmenstein_mode>  (447) 
expansion

>  <fragmenstein_error>  (447) 


$$$$
C20084-P69
     RDKit          3D

 36 39  0  0  0  0  0  0  0  0999 V2000
  -10.3122    0.4764   21.0460 O   0  0  0  0  0  0  0  0  0  0  0  0
  -10.3632   -0.7195   20.9596 C   0  0  0  0  0  0  0  0  0  0  0  0
   -9.7389   -1.4335   22.1580 C   0  0  0  0  0  0  0  0  0  0  0  0
   -9.7270   -2.6455   22.7563 C   0  0  0  0  0  0  0  0  0  0  0  0
   -8.6673   -2.8828   23.7749 C   0  0  0  0  0  0  0  0  0  0  0  0
   -8.5720   -2.1201   24.9515 C   0  0  0  0  0  0  0  0  0  0  0  0
   -7.3365   -1.8766   25.5678 C   0  0  0  0  0  0  0  0  0  0  0  0
   -6.2228   -2.3394   24.8725 C   0  0  0  0  0  0  0  0  0  0  0  0
   -4.9039   -1.9590   24.9502 N   0  0  0  0  0  0  0  0  0  0  0  0
   -4.2493   -2.4673   23.8594 C   0  0  0  0  0  0  0  0  0  0  0  0
   -5.0155   -3.4683   23.3168 C   0  0  0  0  0  0  0  0  0  0  0  0
   -6.3151   -3.2495   23.8195 C   0  0  0  0  0  0  0  0  0  0  0  0
   -7.5686   -3.6212   23.3264 C   0  0  0  0  0  0  0  0  0  0  0  0
  -10.8161   -1.5613   19.8963 N   0  0  0  0  0  0  0  0  0  0  0  0
  -11.2442   -1.2567   18.6175 C   0  0  0  0  0  0  0  0  0  0  0  0
  -11.5983   -2.1477   17.7175 N   0  0  0  0  0  0  0  0  0  0  0  0
  -11.8227   -1.5404   16.4746 C   0  0  0  0  0  0  0  0  0  0  0  0
  -12.1604   -2.1895   15.2636 C   0  0  0  0  0  0  0  0  0  0  0  0
  -12.4139   -1.4361   14.1124 C   0  0  0  0  0  0  0  0  0  0  0  0
  -12.3496   -0.0501   14.1501 C   0  0  0  0  0  0  0  0  0  0  0  0
  -11.9757    0.6138   15.3237 C   0  0  0  0  0  0  0  0  0  0  0  0
  -11.7002   -0.1532   16.4709 C   0  0  0  0  0  0  0  0  0  0  0  0
  -11.1833    0.3532   18.0382 S   0  0  0  0  0  0  0  0  0  0  0  0
   -9.0897   -0.6881   22.6302 H   0  0  0  0  0  0  0  0  0  0  0  0
  -10.3095   -3.4909   22.4113 H   0  0  0  0  0  0  0  0  0  0  0  0
   -9.4479   -1.5876   25.3204 H   0  0  0  0  0  0  0  0  0  0  0  0
   -7.2550   -1.1902   26.4042 H   0  0  0  0  0  0  0  0  0  0  0  0
   -4.5530   -1.2521   25.5839 H   0  0  0  0  0  0  0  0  0  0  0  0
   -3.3066   -2.0741   23.5268 H   0  0  0  0  0  0  0  0  0  0  0  0
   -4.7660   -4.0692   22.4525 H   0  0  0  0  0  0  0  0  0  0  0  0
   -7.6271   -4.2215   22.4232 H   0  0  0  0  0  0  0  0  0  0  0  0
  -10.6366   -2.5239   20.1398 H   0  0  0  0  0  0  0  0  0  0  0  0
  -12.2351   -3.2721   15.2439 H   0  0  0  0  0  0  0  0  0  0  0  0
  -12.6763   -1.9364   13.1899 H   0  0  0  0  0  0  0  0  0  0  0  0
  -12.5604    0.5277   13.2525 H   0  0  0  0  0  0  0  0  0  0  0  0
  -11.8891    1.6963   15.3457 H   0  0  0  0  0  0  0  0  0  0  0  0
  1  2  2  0
  2  3  1  0
  3  4  2  3
  4  5  1  0
  5  6  2  0
  6  7  1  0
  7  8  2  0
  8  9  1  0
  9 10  1  0
 10 11  2  0
 11 12  1  0
 12 13  2  0
  2 14  1  0
 14 15  1  0
 15 16  2  0
 16 17  1  0
 17 18  2  0
 18 19  1  0
 19 20  2  0
 20 21  1  0
 21 22  2  0
 22 23  1  0
 13  5  1  0
 23 15  1  0
 12  8  1  0
 22 17  1  0
  3 24  1  0
  4 25  1  0
  6 26  1  0
  7 27  1  0
  9 28  1  0
 10 29  1  0
 11 30  1  0
 13 31  1  0
 14 32  1  0
 18 33  1  0
 19 34  1  0
 20 35  1  0
 21 36  1  0
M  END
>  <Energy>  (448) 
26.187744927080956

>  <compound_id>  (448) 
20084

>  <target_id>  (448) 
1

>  <reference_id>  (448) 
69

>  <inspiration_ids>  (448) 
[69, 40]

>  <energy_score>  (448) 
-57.63609958082867

>  <distance_score>  (448) 
10.770710912810383

>  <path>  (448) 
/opt/xchem-fragalysis-2/maxwin/BulkDock/SCRATCH/511016/C20084-P69/C20084-P69.minimised.mol

>  <scratch_subdir>  (448) 
/opt/xchem-fragalysis-2/maxwin/BulkDock/SCRATCH/511016/C20084-P69

>  <fragmenstein_runtime>  (448) 
18.782315015792847

>  <fragmenstein_outcome>  (448) 
too moved

>  <fragmenstein_mode>  (448) 
expansion

>  <fragmenstein_error>  (448) 


$$$$
C20084-P40
     RDKit          3D

 36 39  0  0  0  0  0  0  0  0999 V2000
   -9.9809   -6.1606   21.0040 O   0  0  0  0  0  0  0  0  0  0  0  0
  -10.1483   -4.9808   21.1376 C   0  0  0  0  0  0  0  0  0  0  0  0
   -9.5210   -4.3027   22.3842 C   0  0  0  0  0  0  0  0  0  0  0  0
   -8.6935   -4.9499   23.2503 C   0  0  0  0  0  0  0  0  0  0  0  0
   -7.9313   -4.3313   24.3703 C   0  0  0  0  0  0  0  0  0  0  0  0
   -8.0696   -4.7925   25.6881 C   0  0  0  0  0  0  0  0  0  0  0  0
   -7.3523   -4.2299   26.7638 C   0  0  0  0  0  0  0  0  0  0  0  0
   -6.4624   -3.1911   26.4748 C   0  0  0  0  0  0  0  0  0  0  0  0
   -5.6189   -2.4682   27.2914 N   0  0  0  0  0  0  0  0  0  0  0  0
   -4.8513   -1.6152   26.5425 C   0  0  0  0  0  0  0  0  0  0  0  0
   -5.2342   -1.7580   25.2313 C   0  0  0  0  0  0  0  0  0  0  0  0
   -6.2580   -2.7380   25.1728 C   0  0  0  0  0  0  0  0  0  0  0  0
   -6.9963   -3.3165   24.1154 C   0  0  0  0  0  0  0  0  0  0  0  0
  -10.7816   -4.0045   20.2600 N   0  0  0  0  0  0  0  0  0  0  0  0
  -11.2933   -4.1317   18.9744 C   0  0  0  0  0  0  0  0  0  0  0  0
  -11.5823   -3.0814   18.2224 N   0  0  0  0  0  0  0  0  0  0  0  0
  -11.4747   -3.4040   16.8596 C   0  0  0  0  0  0  0  0  0  0  0  0
  -11.5007   -2.5045   15.7667 C   0  0  0  0  0  0  0  0  0  0  0  0
  -11.1789   -2.9520   14.4788 C   0  0  0  0  0  0  0  0  0  0  0  0
  -10.8389   -4.2812   14.2674 C   0  0  0  0  0  0  0  0  0  0  0  0
  -10.8899   -5.2082   15.3132 C   0  0  0  0  0  0  0  0  0  0  0  0
  -11.2078   -4.7497   16.6041 C   0  0  0  0  0  0  0  0  0  0  0  0
  -11.2720   -5.6176   18.1146 S   0  0  0  0  0  0  0  0  0  0  0  0
   -9.7068   -3.2430   22.5111 H   0  0  0  0  0  0  0  0  0  0  0  0
   -8.5120   -6.0165   23.1172 H   0  0  0  0  0  0  0  0  0  0  0  0
   -8.7669   -5.6027   25.9000 H   0  0  0  0  0  0  0  0  0  0  0  0
   -7.4921   -4.5981   27.7752 H   0  0  0  0  0  0  0  0  0  0  0  0
   -5.5219   -2.6065   28.2868 H   0  0  0  0  0  0  0  0  0  0  0  0
   -4.0882   -1.0053   27.0066 H   0  0  0  0  0  0  0  0  0  0  0  0
   -4.8192   -1.2354   24.3847 H   0  0  0  0  0  0  0  0  0  0  0  0
   -6.8127   -2.9814   23.0981 H   0  0  0  0  0  0  0  0  0  0  0  0
  -10.6713   -3.0845   20.6553 H   0  0  0  0  0  0  0  0  0  0  0  0
  -11.7065   -1.4538   15.9471 H   0  0  0  0  0  0  0  0  0  0  0  0
  -11.1585   -2.2495   13.6489 H   0  0  0  0  0  0  0  0  0  0  0  0
  -10.5270   -4.6080   13.2781 H   0  0  0  0  0  0  0  0  0  0  0  0
  -10.6348   -6.2493   15.1505 H   0  0  0  0  0  0  0  0  0  0  0  0
  1  2  2  0
  2  3  1  0
  3  4  2  3
  4  5  1  0
  5  6  2  0
  6  7  1  0
  7  8  2  0
  8  9  1  0
  9 10  1  0
 10 11  2  0
 11 12  1  0
 12 13  2  0
  2 14  1  0
 14 15  1  0
 15 16  2  0
 16 17  1  0
 17 18  2  0
 18 19  1  0
 19 20  2  0
 20 21  1  0
 21 22  2  0
 22 23  1  0
 13  5  1  0
 23 15  1  0
 12  8  1  0
 22 17  1  0
  3 24  1  0
  4 25  1  0
  6 26  1  0
  7 27  1  0
  9 28  1  0
 10 29  1  0
 11 30  1  0
 13 31  1  0
 14 32  1  0
 18 33  1  0
 19 34  1  0
 20 35  1  0
 21 36  1  0
M  END
>  <Energy>  (449) 
8.2670071891015517

>  <compound_id>  (449) 
20084

>  <target_id>  (449) 
1

>  <reference_id>  (449) 
40

>  <inspiration_ids>  (449) 
[69, 40]

>  <energy_score>  (449) 
-75.55683731880356

>  <distance_score>  (449) 
10.506832824263752

>  <path>  (449) 
/opt/xchem-fragalysis-2/maxwin/BulkDock/SCRATCH/511016/C20084-P40/C20084-P40.minimised.mol

>  <scratch_subdir>  (449) 
/opt/xchem-fragalysis-2/maxwin/BulkDock/SCRATCH/511016/C20084-P40

>  <fragmenstein_runtime>  (449) 
16.298892974853516

>  <fragmenstein_outcome>  (449) 
too moved

>  <fragmenstein_mode>  (449) 
expansion

>  <fragmenstein_error>  (449) 


$$$$
C20085-P69
     RDKit          3D

 40 43  0  0  0  0  0  0  0  0999 V2000
   -5.5808   -5.5073   20.6824 C   0  0  0  0  0  0  0  0  0  0  0  0
   -5.3745   -4.1795   20.5010 N   0  0  0  0  0  0  0  0  0  0  0  0
   -4.3609   -4.8124   18.8720 C   0  0  0  0  0  0  0  0  0  0  0  0
   -5.0310   -4.5032   16.9080 C   0  0  0  0  0  0  0  0  0  0  0  0
   -4.9907   -3.5102   15.8595 N   0  0  0  0  0  0  0  0  0  0  0  0
   -6.0340   -2.3184   14.9343 C   0  0  0  0  0  0  0  0  0  0  0  0
   -5.9466   -0.7332   14.5287 C   0  0  0  0  0  0  0  0  0  0  0  0
   -6.3845    0.7906   15.1525 C   0  0  0  0  0  0  0  0  0  0  0  0
   -7.4417    0.7658   16.0515 C   0  0  0  0  0  0  0  0  0  0  0  0
   -7.9380   -0.7440   16.1722 C   0  0  0  0  0  0  0  0  0  0  0  0
   -7.2127   -2.2687   15.5319 C   0  0  0  0  0  0  0  0  0  0  0  0
   -6.8911   -4.3581   15.5246 S   0  0  0  0  0  0  0  0  0  0  0  0
   -4.9583   -3.6217   21.6984 C   0  0  0  0  0  0  0  0  0  0  0  0
   -3.8763   -3.4513   22.1410 O   0  0  0  0  0  0  0  0  0  0  0  0
   -6.5400   -3.1114   22.3110 N   0  0  0  0  0  0  0  0  0  0  0  0
   -6.8745   -2.2323   23.5111 C   0  0  0  0  0  0  0  0  0  0  0  0
   -5.8861   -1.2925   23.9228 C   0  0  0  0  0  0  0  0  0  0  0  0
   -5.5739   -1.0506   25.2672 C   0  0  0  0  0  0  0  0  0  0  0  0
   -6.2303   -1.8490   26.1966 C   0  0  0  0  0  0  0  0  0  0  0  0
   -5.9322   -2.0660   27.5244 N   0  0  0  0  0  0  0  0  0  0  0  0
   -6.7791   -3.0087   28.0404 C   0  0  0  0  0  0  0  0  0  0  0  0
   -7.6569   -3.3787   27.0452 C   0  0  0  0  0  0  0  0  0  0  0  0
   -7.3107   -2.6696   25.8556 C   0  0  0  0  0  0  0  0  0  0  0  0
   -7.7362   -2.7681   24.4913 C   0  0  0  0  0  0  0  0  0  0  0  0
   -5.0270   -5.7564   21.6032 H   0  0  0  0  0  0  0  0  0  0  0  0
   -6.5514   -5.5006   21.2382 H   0  0  0  0  0  0  0  0  0  0  0  0
   -5.8081   -6.1922   19.8853 H   0  0  0  0  0  0  0  0  0  0  0  0
   -4.6763   -5.8653   18.5436 H   0  0  0  0  0  0  0  0  0  0  0  0
   -3.5781   -5.4415   19.2296 H   0  0  0  0  0  0  0  0  0  0  0  0
   -6.1863   -0.6357   13.4432 H   0  0  0  0  0  0  0  0  0  0  0  0
   -6.1871    1.7229   14.6542 H   0  0  0  0  0  0  0  0  0  0  0  0
   -7.9713    1.5996   16.4783 H   0  0  0  0  0  0  0  0  0  0  0  0
   -8.9173   -0.7740   16.7193 H   0  0  0  0  0  0  0  0  0  0  0  0
   -7.2780   -3.4860   21.7427 H   0  0  0  0  0  0  0  0  0  0  0  0
   -5.1844   -0.8939   23.1948 H   0  0  0  0  0  0  0  0  0  0  0  0
   -4.7356   -0.4207   25.5425 H   0  0  0  0  0  0  0  0  0  0  0  0
   -5.1388   -1.6647   28.0089 H   0  0  0  0  0  0  0  0  0  0  0  0
   -6.6791   -3.3413   29.0648 H   0  0  0  0  0  0  0  0  0  0  0  0
   -8.4308   -4.1291   27.1411 H   0  0  0  0  0  0  0  0  0  0  0  0
   -8.4640   -3.5306   24.2305 H   0  0  0  0  0  0  0  0  0  0  0  0
  1  2  1  0
  2  3  1  0
  3  4  1  0
  4  5  2  0
  5  6  1  0
  6  7  2  0
  7  8  1  0
  8  9  2  0
  9 10  1  0
 10 11  2  0
 11 12  1  0
  2 13  1  0
 13 14  2  0
 13 15  1  0
 15 16  1  0
 16 17  2  0
 17 18  1  0
 18 19  2  0
 19 20  1  0
 20 21  1  0
 21 22  2  0
 22 23  1  0
 23 24  2  0
 12  4  1  0
 24 16  1  0
 11  6  1  0
 23 19  1  0
  1 25  1  0
  1 26  1  0
  1 27  1  0
  3 28  1  0
  3 29  1  0
  7 30  1  0
  8 31  1  0
  9 32  1  0
 10 33  1  0
 15 34  1  0
 17 35  1  0
 18 36  1  0
 20 37  1  0
 21 38  1  0
 22 39  1  0
 24 40  1  0
M  END
>  <Energy>  (450) 
797.69731980659333

>  <compound_id>  (450) 
20085

>  <target_id>  (450) 
1

>  <reference_id>  (450) 
69

>  <inspiration_ids>  (450) 
[69, 40]

>  <energy_score>  (450) 
739.654634908955

>  <distance_score>  (450) 
9.659925146112537

>  <path>  (450) 
/opt/xchem-fragalysis-2/maxwin/BulkDock/SCRATCH/511016/C20085-P69/C20085-P69.minimised.mol

>  <scratch_subdir>  (450) 
/opt/xchem-fragalysis-2/maxwin/BulkDock/SCRATCH/511016/C20085-P69

>  <fragmenstein_runtime>  (450) 
23.624561071395874

>  <fragmenstein_outcome>  (450) 
too moved

>  <fragmenstein_mode>  (450) 
expansion

>  <fragmenstein_error>  (450) 


$$$$
C20085-P40
     RDKit          3D

 40 43  0  0  0  0  0  0  0  0999 V2000
   -5.7998   -4.0751   19.2427 C   0  0  0  0  0  0  0  0  0  0  0  0
   -4.5429   -4.0265   19.3661 N   0  0  0  0  0  0  0  0  0  0  0  0
   -4.5740   -4.8776   17.3308 C   0  0  0  0  0  0  0  0  0  0  0  0
   -4.3808   -4.6811   15.0857 C   0  0  0  0  0  0  0  0  0  0  0  0
   -5.2986   -4.3493   13.7132 N   0  0  0  0  0  0  0  0  0  0  0  0
   -5.2902   -5.2028   11.9120 C   0  0  0  0  0  0  0  0  0  0  0  0
   -5.4477   -6.6813   11.3906 C   0  0  0  0  0  0  0  0  0  0  0  0
   -4.6636   -7.2975   10.4612 C   0  0  0  0  0  0  0  0  0  0  0  0
   -3.6495   -6.4123    9.7699 C   0  0  0  0  0  0  0  0  0  0  0  0
   -3.7436   -5.1269    9.8476 C   0  0  0  0  0  0  0  0  0  0  0  0
   -4.1878   -4.9519   11.2222 C   0  0  0  0  0  0  0  0  0  0  0  0
   -2.8171   -4.5377   13.0902 S   0  0  0  0  0  0  0  0  0  0  0  0
   -4.1461   -4.6826   21.0245 C   0  0  0  0  0  0  0  0  0  0  0  0
   -3.9043   -5.7535   21.3735 O   0  0  0  0  0  0  0  0  0  0  0  0
   -4.1258   -3.0820   21.9643 N   0  0  0  0  0  0  0  0  0  0  0  0
   -3.6589   -2.6994   23.5166 C   0  0  0  0  0  0  0  0  0  0  0  0
   -2.9733   -1.4562   23.3655 C   0  0  0  0  0  0  0  0  0  0  0  0
   -2.9073   -0.3329   24.2577 C   0  0  0  0  0  0  0  0  0  0  0  0
   -3.3721   -0.5502   25.5390 C   0  0  0  0  0  0  0  0  0  0  0  0
   -3.1931    0.1251   26.7158 N   0  0  0  0  0  0  0  0  0  0  0  0
   -3.9744   -0.4373   27.6916 C   0  0  0  0  0  0  0  0  0  0  0  0
   -4.6648   -1.4836   27.1199 C   0  0  0  0  0  0  0  0  0  0  0  0
   -4.1889   -1.6277   25.7907 C   0  0  0  0  0  0  0  0  0  0  0  0
   -4.4879   -2.4570   24.6749 C   0  0  0  0  0  0  0  0  0  0  0  0
   -5.9027   -5.0749   19.7174 H   0  0  0  0  0  0  0  0  0  0  0  0
   -5.9109   -3.9266   20.3589 H   0  0  0  0  0  0  0  0  0  0  0  0
   -6.5775   -3.3690   19.6215 H   0  0  0  0  0  0  0  0  0  0  0  0
   -3.7955   -5.5865   17.4728 H   0  0  0  0  0  0  0  0  0  0  0  0
   -4.5200   -3.8652   17.0692 H   0  0  0  0  0  0  0  0  0  0  0  0
   -6.1256   -7.4800   11.6827 H   0  0  0  0  0  0  0  0  0  0  0  0
   -4.7918   -8.3463   10.1944 H   0  0  0  0  0  0  0  0  0  0  0  0
   -2.8191   -6.5531    9.1408 H   0  0  0  0  0  0  0  0  0  0  0  0
   -3.1664   -4.4837    9.2277 H   0  0  0  0  0  0  0  0  0  0  0  0
   -4.2909   -2.3461   21.4040 H   0  0  0  0  0  0  0  0  0  0  0  0
   -2.3812   -1.3054   22.4736 H   0  0  0  0  0  0  0  0  0  0  0  0
   -2.3421    0.5496   23.9990 H   0  0  0  0  0  0  0  0  0  0  0  0
   -2.5781    0.9168   26.8357 H   0  0  0  0  0  0  0  0  0  0  0  0
   -3.9877   -0.0333   28.6940 H   0  0  0  0  0  0  0  0  0  0  0  0
   -5.3782   -2.1209   27.6233 H   0  0  0  0  0  0  0  0  0  0  0  0
   -5.5113   -2.8062   24.7821 H   0  0  0  0  0  0  0  0  0  0  0  0
  1  2  1  0
  2  3  1  0
  3  4  1  0
  4  5  2  0
  5  6  1  0
  6  7  2  0
  7  8  1  0
  8  9  2  0
  9 10  1  0
 10 11  2  0
 11 12  1  0
  2 13  1  0
 13 14  2  0
 13 15  1  0
 15 16  1  0
 16 17  2  0
 17 18  1  0
 18 19  2  0
 19 20  1  0
 20 21  1  0
 21 22  2  0
 22 23  1  0
 23 24  2  0
 12  4  1  0
 24 16  1  0
 11  6  1  0
 23 19  1  0
  1 25  1  0
  1 26  1  0
  1 27  1  0
  3 28  1  0
  3 29  1  0
  7 30  1  0
  8 31  1  0
  9 32  1  0
 10 33  1  0
 15 34  1  0
 17 35  1  0
 18 36  1  0
 20 37  1  0
 21 38  1  0
 22 39  1  0
 24 40  1  0
M  END
>  <Energy>  (451) 
1314.1298023840725

>  <compound_id>  (451) 
20085

>  <target_id>  (451) 
1

>  <reference_id>  (451) 
40

>  <inspiration_ids>  (451) 
[69, 40]

>  <energy_score>  (451) 
1256.0871174864408

>  <distance_score>  (451) 
8.485270559621311

>  <path>  (451) 
/opt/xchem-fragalysis-2/maxwin/BulkDock/SCRATCH/511016/C20085-P40/C20085-P40.minimised.mol

>  <scratch_subdir>  (451) 
/opt/xchem-fragalysis-2/maxwin/BulkDock/SCRATCH/511016/C20085-P40

>  <fragmenstein_runtime>  (451) 
12.72412109375

>  <fragmenstein_outcome>  (451) 
too moved

>  <fragmenstein_mode>  (451) 
expansion

>  <fragmenstein_error>  (451) 


$$$$
C20072-P69
     RDKit          3D

 41 44  0  0  0  0  0  0  0  0999 V2000
   -3.5410   -4.5830   19.4334 O   0  0  0  0  0  0  0  0  0  0  0  0
   -4.4512   -5.1491   19.6014 C   0  0  0  0  0  0  0  0  0  0  0  0
   -5.2858   -5.6146   17.6894 C   0  0  0  0  0  0  0  0  0  0  0  0
   -5.5076   -4.7102   15.7967 C   0  0  0  0  0  0  0  0  0  0  0  0
   -6.3175   -4.3833   13.9352 C   0  0  0  0  0  0  0  0  0  0  0  0
   -7.8955   -4.5119   13.6810 N   0  0  0  0  0  0  0  0  0  0  0  0
   -8.4484   -4.9557   12.1090 C   0  0  0  0  0  0  0  0  0  0  0  0
   -9.7035   -4.6354   10.9726 C   0  0  0  0  0  0  0  0  0  0  0  0
   -9.2805   -4.1927    9.3209 C   0  0  0  0  0  0  0  0  0  0  0  0
   -9.4050   -2.6077    8.7787 C   0  0  0  0  0  0  0  0  0  0  0  0
   -8.1568   -2.0932    8.4974 F   0  0  0  0  0  0  0  0  0  0  0  0
  -10.0728   -2.5050    7.5866 F   0  0  0  0  0  0  0  0  0  0  0  0
   -9.9473   -1.6873    9.6361 F   0  0  0  0  0  0  0  0  0  0  0  0
   -8.3118   -4.6859    8.5485 C   0  0  0  0  0  0  0  0  0  0  0  0
   -7.4090   -5.1122    9.4538 C   0  0  0  0  0  0  0  0  0  0  0  0
   -7.2653   -5.0686   11.0700 C   0  0  0  0  0  0  0  0  0  0  0  0
   -5.8977   -5.5299   11.7715 S   0  0  0  0  0  0  0  0  0  0  0  0
   -4.6451   -5.5284   21.5315 N   0  0  0  0  0  0  0  0  0  0  0  0
   -3.4652   -5.2133   23.0935 C   0  0  0  0  0  0  0  0  0  0  0  0
   -2.0928   -6.1214   23.8762 C   0  0  0  0  0  0  0  0  0  0  0  0
   -0.5740   -6.5086   24.4135 C   0  0  0  0  0  0  0  0  0  0  0  0
    0.4294   -5.9250   23.6918 C   0  0  0  0  0  0  0  0  0  0  0  0
    0.6966   -5.8425   22.2389 N   0  0  0  0  0  0  0  0  0  0  0  0
    1.1251   -4.6655   21.7465 C   0  0  0  0  0  0  0  0  0  0  0  0
    0.8868   -3.8823   22.8084 C   0  0  0  0  0  0  0  0  0  0  0  0
   -0.3209   -4.8051   23.4289 C   0  0  0  0  0  0  0  0  0  0  0  0
   -2.1587   -4.7887   23.8891 C   0  0  0  0  0  0  0  0  0  0  0  0
   -6.2119   -6.2090   17.7321 H   0  0  0  0  0  0  0  0  0  0  0  0
   -4.4897   -6.3421   17.4697 H   0  0  0  0  0  0  0  0  0  0  0  0
   -5.2088   -3.6934   15.9513 H   0  0  0  0  0  0  0  0  0  0  0  0
   -6.5849   -4.9528   15.9419 H   0  0  0  0  0  0  0  0  0  0  0  0
  -10.2119   -3.7365   11.2542 H   0  0  0  0  0  0  0  0  0  0  0  0
   -8.1019   -4.5023    7.5076 H   0  0  0  0  0  0  0  0  0  0  0  0
   -6.5116   -5.4664    9.0412 H   0  0  0  0  0  0  0  0  0  0  0  0
   -5.5407   -5.9792   21.6810 H   0  0  0  0  0  0  0  0  0  0  0  0
   -2.1252   -6.2260   25.0927 H   0  0  0  0  0  0  0  0  0  0  0  0
   -0.4866   -6.7038   25.5030 H   0  0  0  0  0  0  0  0  0  0  0  0
    0.6560   -6.7078   21.7019 H   0  0  0  0  0  0  0  0  0  0  0  0
    1.4593   -4.5863   20.7476 H   0  0  0  0  0  0  0  0  0  0  0  0
    0.8990   -2.8201   22.6198 H   0  0  0  0  0  0  0  0  0  0  0  0
   -2.7252   -3.8218   24.1134 H   0  0  0  0  0  0  0  0  0  0  0  0
  1  2  2  0
  2  3  1  0
  3  4  1  0
  4  5  1  0
  5  6  2  0
  6  7  1  0
  7  8  2  0
  8  9  1  0
  9 10  1  0
 10 11  1  0
 10 12  1  0
 10 13  1  0
  9 14  2  0
 14 15  1  0
 15 16  2  0
 16 17  1  0
  2 18  1  0
 18 19  1  0
 19 20  2  0
 20 21  1  0
 21 22  2  0
 22 23  1  0
 23 24  1  0
 24 25  2  0
 25 26  1  0
 26 27  2  0
 17  5  1  0
 27 19  1  0
 16  7  1  0
 26 22  1  0
  3 28  1  0
  3 29  1  0
  4 30  1  0
  4 31  1  0
  8 32  1  0
 14 33  1  0
 15 34  1  0
 18 35  1  0
 20 36  1  0
 21 37  1  0
 23 38  1  0
 24 39  1  0
 25 40  1  0
 27 41  1  0
M  END
>  <Energy>  (452) 
1674.2720136693117

>  <compound_id>  (452) 
20072

>  <target_id>  (452) 
1

>  <reference_id>  (452) 
69

>  <inspiration_ids>  (452) 
[69, 40]

>  <energy_score>  (452) 
1574.5497005551683

>  <distance_score>  (452) 
7.304036048529751

>  <path>  (452) 
/opt/xchem-fragalysis-2/maxwin/BulkDock/SCRATCH/511016/C20072-P69/C20072-P69.minimised.mol

>  <scratch_subdir>  (452) 
/opt/xchem-fragalysis-2/maxwin/BulkDock/SCRATCH/511016/C20072-P69

>  <fragmenstein_runtime>  (452) 
20.650672674179077

>  <fragmenstein_outcome>  (452) 
too moved

>  <fragmenstein_mode>  (452) 
expansion

>  <fragmenstein_error>  (452) 


$$$$
C20072-P40
     RDKit          3D

 41 44  0  0  0  0  0  0  0  0999 V2000
   -3.7985   -3.0641   19.1869 O   0  0  0  0  0  0  0  0  0  0  0  0
   -4.2907   -4.1774   19.1338 C   0  0  0  0  0  0  0  0  0  0  0  0
   -4.8736   -4.5878   16.9024 C   0  0  0  0  0  0  0  0  0  0  0  0
   -5.3089   -4.4022   14.5832 C   0  0  0  0  0  0  0  0  0  0  0  0
   -5.5187   -4.5710   12.2818 C   0  0  0  0  0  0  0  0  0  0  0  0
   -6.7086   -4.0436   10.8647 N   0  0  0  0  0  0  0  0  0  0  0  0
   -6.5064   -2.2053    9.6772 C   0  0  0  0  0  0  0  0  0  0  0  0
   -7.1982   -1.6364    8.5392 C   0  0  0  0  0  0  0  0  0  0  0  0
   -6.4747   -0.9699    7.5298 C   0  0  0  0  0  0  0  0  0  0  0  0
   -7.2610   -0.3138    6.4054 C   0  0  0  0  0  0  0  0  0  0  0  0
   -6.7691    0.9230    6.1016 F   0  0  0  0  0  0  0  0  0  0  0  0
   -7.2109   -1.0267    5.2483 F   0  0  0  0  0  0  0  0  0  0  0  0
   -8.5785   -0.1293    6.6933 F   0  0  0  0  0  0  0  0  0  0  0  0
   -5.0395   -0.9759    7.4355 C   0  0  0  0  0  0  0  0  0  0  0  0
   -4.0887   -1.5645    8.3142 C   0  0  0  0  0  0  0  0  0  0  0  0
   -4.5352   -2.1468    9.5494 C   0  0  0  0  0  0  0  0  0  0  0  0
   -3.8864   -4.5027   10.4593 S   0  0  0  0  0  0  0  0  0  0  0  0
   -4.1180   -5.1611   21.0444 N   0  0  0  0  0  0  0  0  0  0  0  0
   -3.1603   -4.7621   22.9449 C   0  0  0  0  0  0  0  0  0  0  0  0
   -2.7358   -4.2086   24.8009 C   0  0  0  0  0  0  0  0  0  0  0  0
   -1.6233   -4.2148   26.6214 C   0  0  0  0  0  0  0  0  0  0  0  0
    0.0088   -4.4852   26.6019 C   0  0  0  0  0  0  0  0  0  0  0  0
    1.1877   -4.6841   27.3098 N   0  0  0  0  0  0  0  0  0  0  0  0
    2.1134   -5.4088   26.5316 C   0  0  0  0  0  0  0  0  0  0  0  0
    1.6404   -5.7831   25.2392 C   0  0  0  0  0  0  0  0  0  0  0  0
   -0.0043   -5.1656   24.8203 C   0  0  0  0  0  0  0  0  0  0  0  0
   -1.5966   -5.2729   23.8446 C   0  0  0  0  0  0  0  0  0  0  0  0
   -4.0428   -4.0132   16.5802 H   0  0  0  0  0  0  0  0  0  0  0  0
   -4.4891   -5.5869   17.0113 H   0  0  0  0  0  0  0  0  0  0  0  0
   -5.4124   -3.3576   14.3761 H   0  0  0  0  0  0  0  0  0  0  0  0
   -4.3655   -4.7691   14.4598 H   0  0  0  0  0  0  0  0  0  0  0  0
   -8.2708   -1.8037    8.4296 H   0  0  0  0  0  0  0  0  0  0  0  0
   -4.6242   -0.5538    6.5138 H   0  0  0  0  0  0  0  0  0  0  0  0
   -3.0446   -1.6488    8.0282 H   0  0  0  0  0  0  0  0  0  0  0  0
   -4.5924   -5.9992   21.0015 H   0  0  0  0  0  0  0  0  0  0  0  0
   -3.3879   -3.2716   24.9370 H   0  0  0  0  0  0  0  0  0  0  0  0
   -1.5944   -3.1717   27.2146 H   0  0  0  0  0  0  0  0  0  0  0  0
    1.3265   -4.4077   28.2734 H   0  0  0  0  0  0  0  0  0  0  0  0
    3.0547   -5.6727   26.9987 H   0  0  0  0  0  0  0  0  0  0  0  0
    2.1613   -6.5179   24.6263 H   0  0  0  0  0  0  0  0  0  0  0  0
   -1.6381   -6.3873   23.9062 H   0  0  0  0  0  0  0  0  0  0  0  0
  1  2  2  0
  2  3  1  0
  3  4  1  0
  4  5  1  0
  5  6  2  0
  6  7  1  0
  7  8  2  0
  8  9  1  0
  9 10  1  0
 10 11  1  0
 10 12  1  0
 10 13  1  0
  9 14  2  0
 14 15  1  0
 15 16  2  0
 16 17  1  0
  2 18  1  0
 18 19  1  0
 19 20  2  0
 20 21  1  0
 21 22  2  0
 22 23  1  0
 23 24  1  0
 24 25  2  0
 25 26  1  0
 26 27  2  0
 17  5  1  0
 27 19  1  0
 16  7  1  0
 26 22  1  0
  3 28  1  0
  3 29  1  0
  4 30  1  0
  4 31  1  0
  8 32  1  0
 14 33  1  0
 15 34  1  0
 18 35  1  0
 20 36  1  0
 21 37  1  0
 23 38  1  0
 24 39  1  0
 25 40  1  0
 27 41  1  0
M  END
>  <Energy>  (453) 
3122.2458420782523

>  <compound_id>  (453) 
20072

>  <target_id>  (453) 
1

>  <reference_id>  (453) 
40

>  <inspiration_ids>  (453) 
[69, 40]

>  <energy_score>  (453) 
3022.5235289640723

>  <distance_score>  (453) 
6.246027991533657

>  <path>  (453) 
/opt/xchem-fragalysis-2/maxwin/BulkDock/SCRATCH/511016/C20072-P40/C20072-P40.minimised.mol

>  <scratch_subdir>  (453) 
/opt/xchem-fragalysis-2/maxwin/BulkDock/SCRATCH/511016/C20072-P40

>  <fragmenstein_runtime>  (453) 
11.648292779922485

>  <fragmenstein_outcome>  (453) 
too moved

>  <fragmenstein_mode>  (453) 
expansion

>  <fragmenstein_error>  (453) 


$$$$
C20086-P69
     RDKit          3D

 37 40  0  0  0  0  0  0  0  0999 V2000
   -3.3267   -5.7153   20.6847 O   0  0  0  0  0  0  0  0  0  0  0  0
   -2.9192   -6.8497   20.6273 C   0  0  0  0  0  0  0  0  0  0  0  0
   -3.0538   -7.7961   19.2403 N   0  0  0  0  0  0  0  0  0  0  0  0
   -3.7329   -7.5351   17.9338 C   0  0  0  0  0  0  0  0  0  0  0  0
   -5.0327   -6.3542   17.5803 C   0  0  0  0  0  0  0  0  0  0  0  0
   -6.3233   -6.7150   17.2759 N   0  0  0  0  0  0  0  0  0  0  0  0
   -7.0757   -6.0348   16.3441 C   0  0  0  0  0  0  0  0  0  0  0  0
   -8.3313   -6.4184   15.7490 C   0  0  0  0  0  0  0  0  0  0  0  0
   -8.9733   -5.5086   14.8488 C   0  0  0  0  0  0  0  0  0  0  0  0
   -8.3819   -4.2623   14.5402 C   0  0  0  0  0  0  0  0  0  0  0  0
   -7.0848   -3.9175   15.0089 C   0  0  0  0  0  0  0  0  0  0  0  0
   -6.4073   -4.8938   15.8433 C   0  0  0  0  0  0  0  0  0  0  0  0
   -4.7139   -4.7756   16.7549 S   0  0  0  0  0  0  0  0  0  0  0  0
   -1.9381   -7.6378   22.0754 N   0  0  0  0  0  0  0  0  0  0  0  0
   -1.2684   -6.8226   23.7790 C   0  0  0  0  0  0  0  0  0  0  0  0
   -1.1713   -6.8528   25.1646 C   0  0  0  0  0  0  0  0  0  0  0  0
    0.0140   -6.2781   25.8057 C   0  0  0  0  0  0  0  0  0  0  0  0
    1.2525   -5.4701   25.0253 C   0  0  0  0  0  0  0  0  0  0  0  0
    2.0294   -4.0075   25.3411 N   0  0  0  0  0  0  0  0  0  0  0  0
    2.1814   -3.1590   23.9786 C   0  0  0  0  0  0  0  0  0  0  0  0
    1.3379   -3.8830   23.0042 C   0  0  0  0  0  0  0  0  0  0  0  0
    0.8660   -5.2739   23.6725 C   0  0  0  0  0  0  0  0  0  0  0  0
    0.3124   -6.4885   23.3848 C   0  0  0  0  0  0  0  0  0  0  0  0
   -2.5675   -8.6746   19.4022 H   0  0  0  0  0  0  0  0  0  0  0  0
   -3.7300   -8.3673   17.2508 H   0  0  0  0  0  0  0  0  0  0  0  0
   -3.0617   -6.8159   17.6884 H   0  0  0  0  0  0  0  0  0  0  0  0
   -8.8137   -7.3379   16.0615 H   0  0  0  0  0  0  0  0  0  0  0  0
   -9.9830   -5.7165   14.5065 H   0  0  0  0  0  0  0  0  0  0  0  0
   -8.9798   -3.5254   14.0225 H   0  0  0  0  0  0  0  0  0  0  0  0
   -6.6332   -2.9489   14.8443 H   0  0  0  0  0  0  0  0  0  0  0  0
   -1.7662   -8.6039   21.8667 H   0  0  0  0  0  0  0  0  0  0  0  0
   -1.7521   -7.4441   25.8492 H   0  0  0  0  0  0  0  0  0  0  0  0
   -0.2191   -6.0865   26.8487 H   0  0  0  0  0  0  0  0  0  0  0  0
    2.8353   -4.0071   25.9428 H   0  0  0  0  0  0  0  0  0  0  0  0
    2.8444   -2.3105   24.0471 H   0  0  0  0  0  0  0  0  0  0  0  0
    1.2582   -3.6325   21.9515 H   0  0  0  0  0  0  0  0  0  0  0  0
    0.4768   -6.9455   22.3716 H   0  0  0  0  0  0  0  0  0  0  0  0
  1  2  2  0
  2  3  1  0
  3  4  1  0
  4  5  1  0
  5  6  2  0
  6  7  1  0
  7  8  2  0
  8  9  1  0
  9 10  2  0
 10 11  1  0
 11 12  2  0
 12 13  1  0
  2 14  1  0
 14 15  1  0
 15 16  2  0
 16 17  1  0
 17 18  2  0
 18 19  1  0
 19 20  1  0
 20 21  2  0
 21 22  1  0
 22 23  2  0
 13  5  1  0
 23 15  1  0
 12  7  1  0
 22 18  1  0
  3 24  1  0
  4 25  1  0
  4 26  1  0
  8 27  1  0
  9 28  1  0
 10 29  1  0
 11 30  1  0
 14 31  1  0
 16 32  1  0
 17 33  1  0
 19 34  1  0
 20 35  1  0
 21 36  1  0
 23 37  1  0
M  END
>  <Energy>  (454) 
497.88323299207963

>  <compound_id>  (454) 
20086

>  <target_id>  (454) 
1

>  <reference_id>  (454) 
69

>  <inspiration_ids>  (454) 
[69, 40]

>  <energy_score>  (454) 
459.9580253823923

>  <distance_score>  (454) 
8.498919041508492

>  <path>  (454) 
/opt/xchem-fragalysis-2/maxwin/BulkDock/SCRATCH/511016/C20086-P69/C20086-P69.minimised.mol

>  <scratch_subdir>  (454) 
/opt/xchem-fragalysis-2/maxwin/BulkDock/SCRATCH/511016/C20086-P69

>  <fragmenstein_runtime>  (454) 
13.42668890953064

>  <fragmenstein_outcome>  (454) 
too moved

>  <fragmenstein_mode>  (454) 
expansion

>  <fragmenstein_error>  (454) 


$$$$
C20086-P40
     RDKit          3D

 37 40  0  0  0  0  0  0  0  0999 V2000
   -3.9103   -5.1430   15.3106 O   0  0  0  0  0  0  0  0  0  0  0  0
   -4.8312   -4.5256   15.4235 C   0  0  0  0  0  0  0  0  0  0  0  0
   -6.0218   -4.2322   13.9212 N   0  0  0  0  0  0  0  0  0  0  0  0
   -6.0398   -5.0204   11.9700 C   0  0  0  0  0  0  0  0  0  0  0  0
   -7.1598   -4.8515   10.2116 C   0  0  0  0  0  0  0  0  0  0  0  0
   -6.8049   -5.2296    8.9166 N   0  0  0  0  0  0  0  0  0  0  0  0
   -7.2502   -4.3567    7.6467 C   0  0  0  0  0  0  0  0  0  0  0  0
   -6.8348   -4.2792    6.3080 C   0  0  0  0  0  0  0  0  0  0  0  0
   -7.1779   -3.1822    5.4930 C   0  0  0  0  0  0  0  0  0  0  0  0
   -8.0108   -2.1795    5.9693 C   0  0  0  0  0  0  0  0  0  0  0  0
   -8.5885   -2.3160    7.2240 C   0  0  0  0  0  0  0  0  0  0  0  0
   -8.1896   -3.4306    7.9631 C   0  0  0  0  0  0  0  0  0  0  0  0
   -8.9340   -4.3473    9.1282 S   0  0  0  0  0  0  0  0  0  0  0  0
   -5.1859   -4.0152   17.1631 N   0  0  0  0  0  0  0  0  0  0  0  0
   -4.4254   -4.4256   18.7669 C   0  0  0  0  0  0  0  0  0  0  0  0
   -5.6795   -4.0927   19.8165 C   0  0  0  0  0  0  0  0  0  0  0  0
   -6.6686   -3.8732   21.1779 C   0  0  0  0  0  0  0  0  0  0  0  0
   -5.9490   -3.9735   22.2497 C   0  0  0  0  0  0  0  0  0  0  0  0
   -5.9575   -3.3758   23.4548 N   0  0  0  0  0  0  0  0  0  0  0  0
   -4.6365   -3.3626   23.7744 C   0  0  0  0  0  0  0  0  0  0  0  0
   -4.1847   -4.5480   23.1671 C   0  0  0  0  0  0  0  0  0  0  0  0
   -4.7620   -4.5275   21.9091 C   0  0  0  0  0  0  0  0  0  0  0  0
   -4.3534   -4.6010   20.2565 C   0  0  0  0  0  0  0  0  0  0  0  0
   -6.7434   -3.5951   14.1807 H   0  0  0  0  0  0  0  0  0  0  0  0
   -5.2090   -5.7229   11.6693 H   0  0  0  0  0  0  0  0  0  0  0  0
   -6.9412   -5.4710   12.4145 H   0  0  0  0  0  0  0  0  0  0  0  0
   -6.2890   -5.0801    5.8707 H   0  0  0  0  0  0  0  0  0  0  0  0
   -6.8124   -3.1457    4.4702 H   0  0  0  0  0  0  0  0  0  0  0  0
   -8.3052   -1.3578    5.3226 H   0  0  0  0  0  0  0  0  0  0  0  0
   -9.3992   -1.6776    7.5568 H   0  0  0  0  0  0  0  0  0  0  0  0
   -5.8798   -3.4708   17.1560 H   0  0  0  0  0  0  0  0  0  0  0  0
   -6.5027   -3.5422   19.4216 H   0  0  0  0  0  0  0  0  0  0  0  0
   -7.6155   -3.3484   21.1160 H   0  0  0  0  0  0  0  0  0  0  0  0
   -6.6721   -2.7580   23.8169 H   0  0  0  0  0  0  0  0  0  0  0  0
   -4.2407   -2.7473   24.5767 H   0  0  0  0  0  0  0  0  0  0  0  0
   -3.2717   -4.9965   23.4870 H   0  0  0  0  0  0  0  0  0  0  0  0
   -3.4386   -5.0801   20.5157 H   0  0  0  0  0  0  0  0  0  0  0  0
  1  2  2  0
  2  3  1  0
  3  4  1  0
  4  5  1  0
  5  6  2  0
  6  7  1  0
  7  8  2  0
  8  9  1  0
  9 10  2  0
 10 11  1  0
 11 12  2  0
 12 13  1  0
  2 14  1  0
 14 15  1  0
 15 16  2  0
 16 17  1  0
 17 18  2  0
 18 19  1  0
 19 20  1  0
 20 21  2  0
 21 22  1  0
 22 23  2  0
 13  5  1  0
 23 15  1  0
 12  7  1  0
 22 18  1  0
  3 24  1  0
  4 25  1  0
  4 26  1  0
  8 27  1  0
  9 28  1  0
 10 29  1  0
 11 30  1  0
 14 31  1  0
 16 32  1  0
 17 33  1  0
 19 34  1  0
 20 35  1  0
 21 36  1  0
 23 37  1  0
M  END
>  <Energy>  (455) 
931.63394558656148

>  <compound_id>  (455) 
20086

>  <target_id>  (455) 
1

>  <reference_id>  (455) 
40

>  <inspiration_ids>  (455) 
[69, 40]

>  <energy_score>  (455) 
893.7087379768806

>  <distance_score>  (455) 
9.478483370883103

>  <path>  (455) 
/opt/xchem-fragalysis-2/maxwin/BulkDock/SCRATCH/511016/C20086-P40/C20086-P40.minimised.mol

>  <scratch_subdir>  (455) 
/opt/xchem-fragalysis-2/maxwin/BulkDock/SCRATCH/511016/C20086-P40

>  <fragmenstein_runtime>  (455) 
17.865741729736328

>  <fragmenstein_outcome>  (455) 
too moved

>  <fragmenstein_mode>  (455) 
expansion

>  <fragmenstein_error>  (455) 


$$$$
C20083-P69
     RDKit          3D

 37 40  0  0  0  0  0  0  0  0999 V2000
   -3.9673   -5.5376   10.7568 O   0  0  0  0  0  0  0  0  0  0  0  0
   -3.3236   -5.8510    9.8289 C   0  0  0  0  0  0  0  0  0  0  0  0
   -3.4159   -5.1565    8.1947 N   0  0  0  0  0  0  0  0  0  0  0  0
   -4.2360   -3.9485    7.6470 C   0  0  0  0  0  0  0  0  0  0  0  0
   -4.1311   -3.1243    6.3354 C   0  0  0  0  0  0  0  0  0  0  0  0
   -3.9662   -1.8068    6.4718 N   0  0  0  0  0  0  0  0  0  0  0  0
   -5.2363   -1.2528    6.3630 C   0  0  0  0  0  0  0  0  0  0  0  0
   -5.7366   -0.1155    7.0204 C   0  0  0  0  0  0  0  0  0  0  0  0
   -7.0439    0.3036    6.7655 C   0  0  0  0  0  0  0  0  0  0  0  0
   -7.6505    1.7001    7.5667 Cl  0  0  0  0  0  0  0  0  0  0  0  0
   -7.8555   -0.3815    5.8683 C   0  0  0  0  0  0  0  0  0  0  0  0
   -7.3838   -1.5230    5.2128 C   0  0  0  0  0  0  0  0  0  0  0  0
   -6.0824   -1.9526    5.5052 C   0  0  0  0  0  0  0  0  0  0  0  0
   -5.2167   -3.3435    4.9720 S   0  0  0  0  0  0  0  0  0  0  0  0
   -2.1255   -6.8777    9.8024 N   0  0  0  0  0  0  0  0  0  0  0  0
   -1.4697   -7.5842   10.8656 C   0  0  0  0  0  0  0  0  0  0  0  0
   -1.5186   -8.9608   11.0527 C   0  0  0  0  0  0  0  0  0  0  0  0
   -0.8732   -9.5957   12.1550 C   0  0  0  0  0  0  0  0  0  0  0  0
   -0.0991   -8.8244   13.0375 C   0  0  0  0  0  0  0  0  0  0  0  0
    0.5972   -9.1710   14.1752 N   0  0  0  0  0  0  0  0  0  0  0  0
    1.3555   -8.1135   14.5966 C   0  0  0  0  0  0  0  0  0  0  0  0
    1.0236   -7.0287   13.8106 C   0  0  0  0  0  0  0  0  0  0  0  0
    0.0658   -7.4561   12.8446 C   0  0  0  0  0  0  0  0  0  0  0  0
   -0.6579   -6.8379   11.7775 C   0  0  0  0  0  0  0  0  0  0  0  0
   -2.7004   -5.5488    7.6223 H   0  0  0  0  0  0  0  0  0  0  0  0
   -5.3064   -3.8935    7.8351 H   0  0  0  0  0  0  0  0  0  0  0  0
   -3.6176   -3.1893    8.1541 H   0  0  0  0  0  0  0  0  0  0  0  0
   -5.1107    0.3982    7.7398 H   0  0  0  0  0  0  0  0  0  0  0  0
   -8.8715   -0.0420    5.6775 H   0  0  0  0  0  0  0  0  0  0  0  0
   -8.0214   -2.0809    4.5332 H   0  0  0  0  0  0  0  0  0  0  0  0
   -1.7129   -6.8776    8.8820 H   0  0  0  0  0  0  0  0  0  0  0  0
   -2.1125   -9.5691   10.3754 H   0  0  0  0  0  0  0  0  0  0  0  0
   -0.9838  -10.6661   12.2991 H   0  0  0  0  0  0  0  0  0  0  0  0
    0.6015  -10.0949   14.5826 H   0  0  0  0  0  0  0  0  0  0  0  0
    2.0354   -8.2241   15.4274 H   0  0  0  0  0  0  0  0  0  0  0  0
    1.4282   -6.0307   13.9077 H   0  0  0  0  0  0  0  0  0  0  0  0
   -0.5549   -5.7675   11.6444 H   0  0  0  0  0  0  0  0  0  0  0  0
  1  2  2  0
  2  3  1  0
  3  4  1  0
  4  5  1  0
  5  6  2  0
  6  7  1  0
  7  8  2  0
  8  9  1  0
  9 10  1  0
  9 11  2  0
 11 12  1  0
 12 13  2  0
 13 14  1  0
  2 15  1  0
 15 16  1  0
 16 17  2  0
 17 18  1  0
 18 19  2  0
 19 20  1  0
 20 21  1  0
 21 22  2  0
 22 23  1  0
 23 24  2  0
 14  5  1  0
 24 16  1  0
 13  7  1  0
 23 19  1  0
  3 25  1  0
  4 26  1  0
  4 27  1  0
  8 28  1  0
 11 29  1  0
 12 30  1  0
 15 31  1  0
 17 32  1  0
 18 33  1  0
 20 34  1  0
 21 35  1  0
 22 36  1  0
 24 37  1  0
M  END
>  <Energy>  (456) 
104.77085004463278

>  <compound_id>  (456) 
20083

>  <target_id>  (456) 
1

>  <reference_id>  (456) 
69

>  <inspiration_ids>  (456) 
[69, 40]

>  <energy_score>  (456) 
84.66841974254044

>  <distance_score>  (456) 
14.001924633213498

>  <path>  (456) 
/opt/xchem-fragalysis-2/maxwin/BulkDock/SCRATCH/511016/C20083-P69/C20083-P69.minimised.mol

>  <scratch_subdir>  (456) 
/opt/xchem-fragalysis-2/maxwin/BulkDock/SCRATCH/511016/C20083-P69

>  <fragmenstein_runtime>  (456) 
26.253121376037598

>  <fragmenstein_outcome>  (456) 
too moved

>  <fragmenstein_mode>  (456) 
expansion

>  <fragmenstein_error>  (456) 


$$$$
C20083-P40
     RDKit          3D

 37 40  0  0  0  0  0  0  0  0999 V2000
    6.8549   -2.2840   16.0137 O   0  0  0  0  0  0  0  0  0  0  0  0
    6.1118   -1.3929   15.8095 C   0  0  0  0  0  0  0  0  0  0  0  0
    5.5471   -0.8684   14.4946 N   0  0  0  0  0  0  0  0  0  0  0  0
    5.6882   -1.3864   13.0938 C   0  0  0  0  0  0  0  0  0  0  0  0
    4.4958   -0.9901   12.1865 C   0  0  0  0  0  0  0  0  0  0  0  0
    3.9334   -1.6019   11.1319 N   0  0  0  0  0  0  0  0  0  0  0  0
    2.6080   -1.1230   10.9368 C   0  0  0  0  0  0  0  0  0  0  0  0
    1.5988   -1.4819    9.9651 C   0  0  0  0  0  0  0  0  0  0  0  0
    0.2592   -1.0825   10.2755 C   0  0  0  0  0  0  0  0  0  0  0  0
   -1.6616   -1.1760    8.8906 Cl  0  0  0  0  0  0  0  0  0  0  0  0
   -0.0012   -0.5228   11.6642 C   0  0  0  0  0  0  0  0  0  0  0  0
    1.0108    0.0159   12.4335 C   0  0  0  0  0  0  0  0  0  0  0  0
    2.2809   -0.2311   11.9606 C   0  0  0  0  0  0  0  0  0  0  0  0
    3.7153    0.5058   12.5319 S   0  0  0  0  0  0  0  0  0  0  0  0
    5.3835   -0.4715   16.7930 N   0  0  0  0  0  0  0  0  0  0  0  0
    5.3255   -0.4923   18.2229 C   0  0  0  0  0  0  0  0  0  0  0  0
    4.3824    0.3467   18.8477 C   0  0  0  0  0  0  0  0  0  0  0  0
    4.1923    0.3964   20.2469 C   0  0  0  0  0  0  0  0  0  0  0  0
    5.0125   -0.4074   21.0383 C   0  0  0  0  0  0  0  0  0  0  0  0
    5.0524   -0.5661   22.4058 N   0  0  0  0  0  0  0  0  0  0  0  0
    6.0873   -1.3914   22.7516 C   0  0  0  0  0  0  0  0  0  0  0  0
    6.6856   -1.8160   21.5846 C   0  0  0  0  0  0  0  0  0  0  0  0
    5.9929   -1.2307   20.4819 C   0  0  0  0  0  0  0  0  0  0  0  0
    6.1273   -1.2932   19.0568 C   0  0  0  0  0  0  0  0  0  0  0  0
    5.0056   -0.0429   14.6704 H   0  0  0  0  0  0  0  0  0  0  0  0
    5.7783   -2.4751   13.1477 H   0  0  0  0  0  0  0  0  0  0  0  0
    6.6142   -0.9689   12.6872 H   0  0  0  0  0  0  0  0  0  0  0  0
    1.8582   -2.0719    9.0967 H   0  0  0  0  0  0  0  0  0  0  0  0
   -1.0296   -0.4093   11.9884 H   0  0  0  0  0  0  0  0  0  0  0  0
    0.8380    0.6513   13.2895 H   0  0  0  0  0  0  0  0  0  0  0  0
    4.7616    0.1296   16.2881 H   0  0  0  0  0  0  0  0  0  0  0  0
    3.7273    0.9689   18.2392 H   0  0  0  0  0  0  0  0  0  0  0  0
    3.4201    1.0309   20.6712 H   0  0  0  0  0  0  0  0  0  0  0  0
    4.4427   -0.0850   23.0512 H   0  0  0  0  0  0  0  0  0  0  0  0
    6.3146   -1.6012   23.7877 H   0  0  0  0  0  0  0  0  0  0  0  0
    7.5424   -2.4741   21.5199 H   0  0  0  0  0  0  0  0  0  0  0  0
    6.8792   -1.9475   18.6242 H   0  0  0  0  0  0  0  0  0  0  0  0
  1  2  2  0
  2  3  1  0
  3  4  1  0
  4  5  1  0
  5  6  2  0
  6  7  1  0
  7  8  2  0
  8  9  1  0
  9 10  1  0
  9 11  2  0
 11 12  1  0
 12 13  2  0
 13 14  1  0
  2 15  1  0
 15 16  1  0
 16 17  2  0
 17 18  1  0
 18 19  2  0
 19 20  1  0
 20 21  1  0
 21 22  2  0
 22 23  1  0
 23 24  2  0
 14  5  1  0
 24 16  1  0
 13  7  1  0
 23 19  1  0
  3 25  1  0
  4 26  1  0
  4 27  1  0
  8 28  1  0
 11 29  1  0
 12 30  1  0
 15 31  1  0
 17 32  1  0
 18 33  1  0
 20 34  1  0
 21 35  1  0
 22 36  1  0
 24 37  1  0
M  END
>  <Energy>  (457) 
95.110431105408068

>  <compound_id>  (457) 
20083

>  <target_id>  (457) 
1

>  <reference_id>  (457) 
40

>  <inspiration_ids>  (457) 
[69, 40]

>  <energy_score>  (457) 
75.00800080331271

>  <distance_score>  (457) 
11.995756521712261

>  <path>  (457) 
/opt/xchem-fragalysis-2/maxwin/BulkDock/SCRATCH/511016/C20083-P40/C20083-P40.minimised.mol

>  <scratch_subdir>  (457) 
/opt/xchem-fragalysis-2/maxwin/BulkDock/SCRATCH/511016/C20083-P40

>  <fragmenstein_runtime>  (457) 
19.087465286254883

>  <fragmenstein_outcome>  (457) 
too moved

>  <fragmenstein_mode>  (457) 
expansion

>  <fragmenstein_error>  (457) 


$$$$
C20089-P69
     RDKit          3D

 42 45  0  0  0  0  0  0  0  0999 V2000
  -10.4803   -8.5834   17.6798 C   0  0  0  0  0  0  0  0  0  0  0  0
   -9.9315   -7.4379   17.0444 O   0  0  0  0  0  0  0  0  0  0  0  0
   -8.6716   -7.7281   16.4438 C   0  0  0  0  0  0  0  0  0  0  0  0
   -8.0403   -6.4511   15.9713 C   0  0  0  0  0  0  0  0  0  0  0  0
   -8.7605   -5.6464   14.9919 C   0  0  0  0  0  0  0  0  0  0  0  0
   -8.2790   -4.3753   14.5824 C   0  0  0  0  0  0  0  0  0  0  0  0
   -6.9866   -3.9285   14.9818 C   0  0  0  0  0  0  0  0  0  0  0  0
   -6.1933   -4.8103   15.8221 C   0  0  0  0  0  0  0  0  0  0  0  0
   -4.5880   -4.5676   16.6186 S   0  0  0  0  0  0  0  0  0  0  0  0
   -4.8094   -5.6676   17.9575 C   0  0  0  0  0  0  0  0  0  0  0  0
   -4.1346   -5.3008   19.5127 N   0  0  0  0  0  0  0  0  0  0  0  0
   -4.8946   -5.1581   21.1017 C   0  0  0  0  0  0  0  0  0  0  0  0
   -6.0899   -5.2160   21.3426 O   0  0  0  0  0  0  0  0  0  0  0  0
   -3.9354   -5.0501   22.7106 C   0  0  0  0  0  0  0  0  0  0  0  0
   -2.3676   -5.4507   23.7667 C   0  0  0  0  0  0  0  0  0  0  0  0
   -2.2686   -4.9010   24.8770 C   0  0  0  0  0  0  0  0  0  0  0  0
   -1.6310   -5.1577   26.3829 C   0  0  0  0  0  0  0  0  0  0  0  0
   -1.2499   -6.3650   26.7260 C   0  0  0  0  0  0  0  0  0  0  0  0
   -1.0286   -6.9702   27.9130 N   0  0  0  0  0  0  0  0  0  0  0  0
   -0.4566   -8.1731   27.6479 C   0  0  0  0  0  0  0  0  0  0  0  0
   -0.6425   -8.3175   26.2997 C   0  0  0  0  0  0  0  0  0  0  0  0
   -1.1110   -7.1368   25.6334 C   0  0  0  0  0  0  0  0  0  0  0  0
   -1.5678   -6.5091   24.2442 C   0  0  0  0  0  0  0  0  0  0  0  0
   -5.9633   -6.3110   17.6189 N   0  0  0  0  0  0  0  0  0  0  0  0
   -6.7981   -5.9112   16.5028 C   0  0  0  0  0  0  0  0  0  0  0  0
  -10.6161   -9.3946   16.9580 H   0  0  0  0  0  0  0  0  0  0  0  0
   -9.8361   -8.9125   18.5006 H   0  0  0  0  0  0  0  0  0  0  0  0
  -11.4568   -8.3142   18.0911 H   0  0  0  0  0  0  0  0  0  0  0  0
   -8.0144   -8.2354   17.1465 H   0  0  0  0  0  0  0  0  0  0  0  0
   -8.8247   -8.3924   15.5851 H   0  0  0  0  0  0  0  0  0  0  0  0
   -9.7627   -5.9508   14.6979 H   0  0  0  0  0  0  0  0  0  0  0  0
   -8.9376   -3.7304   14.0177 H   0  0  0  0  0  0  0  0  0  0  0  0
   -6.6098   -2.9402   14.7627 H   0  0  0  0  0  0  0  0  0  0  0  0
   -3.1631   -5.2994   19.6165 H   0  0  0  0  0  0  0  0  0  0  0  0
   -4.1707   -4.0012   22.9796 H   0  0  0  0  0  0  0  0  0  0  0  0
   -4.6726   -5.6025   23.3166 H   0  0  0  0  0  0  0  0  0  0  0  0
   -3.1008   -4.1741   24.6166 H   0  0  0  0  0  0  0  0  0  0  0  0
   -1.5107   -4.3632   27.1069 H   0  0  0  0  0  0  0  0  0  0  0  0
   -1.1573   -6.6102   28.8449 H   0  0  0  0  0  0  0  0  0  0  0  0
   -0.1288   -8.8597   28.4174 H   0  0  0  0  0  0  0  0  0  0  0  0
   -0.3853   -9.2834   25.9730 H   0  0  0  0  0  0  0  0  0  0  0  0
   -1.9081   -7.0920   23.4097 H   0  0  0  0  0  0  0  0  0  0  0  0
  1  2  1  0
  2  3  1  0
  3  4  1  0
  4  5  2  0
  5  6  1  0
  6  7  2  0
  7  8  1  0
  8  9  1  0
  9 10  1  0
 10 11  1  0
 11 12  1  0
 12 13  2  0
 12 14  1  0
 14 15  1  0
 15 16  2  0
 16 17  1  0
 17 18  2  0
 18 19  1  0
 19 20  1  0
 20 21  2  0
 21 22  1  0
 22 23  2  0
 10 24  2  0
 24 25  1  0
 25  4  1  0
 25  8  2  0
 23 15  1  0
 22 18  1  0
  1 26  1  0
  1 27  1  0
  1 28  1  0
  3 29  1  0
  3 30  1  0
  5 31  1  0
  6 32  1  0
  7 33  1  0
 11 34  1  0
 14 35  1  0
 14 36  1  0
 16 37  1  0
 17 38  1  0
 19 39  1  0
 20 40  1  0
 21 41  1  0
 23 42  1  0
M  END
>  <Energy>  (458) 
452.51961381361127

>  <compound_id>  (458) 
20089

>  <target_id>  (458) 
1

>  <reference_id>  (458) 
69

>  <inspiration_ids>  (458) 
[69, 40]

>  <energy_score>  (458) 
331.7754255948604

>  <distance_score>  (458) 
8.35571294417659

>  <path>  (458) 
/opt/xchem-fragalysis-2/maxwin/BulkDock/SCRATCH/511016/C20089-P69/C20089-P69.minimised.mol

>  <scratch_subdir>  (458) 
/opt/xchem-fragalysis-2/maxwin/BulkDock/SCRATCH/511016/C20089-P69

>  <fragmenstein_runtime>  (458) 
36.12206816673279

>  <fragmenstein_outcome>  (458) 
too moved

>  <fragmenstein_mode>  (458) 
expansion

>  <fragmenstein_error>  (458) 


$$$$
C20089-P40
     RDKit          3D

 42 45  0  0  0  0  0  0  0  0999 V2000
   -7.9727   -4.0598    7.6349 C   0  0  0  0  0  0  0  0  0  0  0  0
   -7.5692   -5.3557    8.0520 O   0  0  0  0  0  0  0  0  0  0  0  0
   -6.7963   -5.5266    9.3878 C   0  0  0  0  0  0  0  0  0  0  0  0
   -5.6633   -6.4130   10.6814 C   0  0  0  0  0  0  0  0  0  0  0  0
   -4.7154   -7.3996   10.4382 C   0  0  0  0  0  0  0  0  0  0  0  0
   -3.5312   -6.7713    9.8062 C   0  0  0  0  0  0  0  0  0  0  0  0
   -3.5873   -5.3899    9.6843 C   0  0  0  0  0  0  0  0  0  0  0  0
   -4.0497   -4.8965   10.9884 C   0  0  0  0  0  0  0  0  0  0  0  0
   -2.6625   -4.5358   12.8513 S   0  0  0  0  0  0  0  0  0  0  0  0
   -4.5996   -4.5748   14.1754 C   0  0  0  0  0  0  0  0  0  0  0  0
   -4.6060   -4.1150   15.8610 N   0  0  0  0  0  0  0  0  0  0  0  0
   -4.3794   -4.9966   17.2245 C   0  0  0  0  0  0  0  0  0  0  0  0
   -4.0748   -6.1623   17.3060 O   0  0  0  0  0  0  0  0  0  0  0  0
   -4.4296   -4.1757   19.0138 C   0  0  0  0  0  0  0  0  0  0  0  0
   -4.8078   -4.3327   20.7812 C   0  0  0  0  0  0  0  0  0  0  0  0
   -4.4437   -3.7149   22.0482 C   0  0  0  0  0  0  0  0  0  0  0  0
   -4.2078   -4.5866   23.1837 C   0  0  0  0  0  0  0  0  0  0  0  0
   -4.3177   -5.9502   22.8554 C   0  0  0  0  0  0  0  0  0  0  0  0
   -3.3556   -7.3363   22.4687 N   0  0  0  0  0  0  0  0  0  0  0  0
   -2.7862   -7.7718   21.3043 C   0  0  0  0  0  0  0  0  0  0  0  0
   -4.0594   -7.4606   21.4863 C   0  0  0  0  0  0  0  0  0  0  0  0
   -4.5703   -5.9462   21.5961 C   0  0  0  0  0  0  0  0  0  0  0  0
   -5.6883   -5.1756   21.1925 C   0  0  0  0  0  0  0  0  0  0  0  0
   -5.4276   -4.2929   13.1441 N   0  0  0  0  0  0  0  0  0  0  0  0
   -5.1007   -5.4383   11.7045 C   0  0  0  0  0  0  0  0  0  0  0  0
   -7.1082   -3.4682    7.3234 H   0  0  0  0  0  0  0  0  0  0  0  0
   -8.6173   -4.1795    6.7592 H   0  0  0  0  0  0  0  0  0  0  0  0
   -8.5488   -3.5512    8.4061 H   0  0  0  0  0  0  0  0  0  0  0  0
   -6.0482   -5.0481    8.8522 H   0  0  0  0  0  0  0  0  0  0  0  0
   -7.3577   -4.8661   10.0194 H   0  0  0  0  0  0  0  0  0  0  0  0
   -4.8988   -8.4644   10.3957 H   0  0  0  0  0  0  0  0  0  0  0  0
   -2.5439   -7.2041    9.6382 H   0  0  0  0  0  0  0  0  0  0  0  0
   -3.1854   -4.7470    8.9400 H   0  0  0  0  0  0  0  0  0  0  0  0
   -4.7679   -3.1777   16.1046 H   0  0  0  0  0  0  0  0  0  0  0  0
   -5.4714   -4.2928   19.0705 H   0  0  0  0  0  0  0  0  0  0  0  0
   -4.0660   -3.1478   18.9461 H   0  0  0  0  0  0  0  0  0  0  0  0
   -4.0142   -2.7247   22.1981 H   0  0  0  0  0  0  0  0  0  0  0  0
   -3.5976   -4.1540   23.9680 H   0  0  0  0  0  0  0  0  0  0  0  0
   -2.5044   -7.1461   22.9758 H   0  0  0  0  0  0  0  0  0  0  0  0
   -2.3310   -8.6449   20.8256 H   0  0  0  0  0  0  0  0  0  0  0  0
   -3.9326   -7.9401   20.5347 H   0  0  0  0  0  0  0  0  0  0  0  0
   -6.4496   -4.9507   21.9456 H   0  0  0  0  0  0  0  0  0  0  0  0
  1  2  1  0
  2  3  1  0
  3  4  1  0
  4  5  2  0
  5  6  1  0
  6  7  2  0
  7  8  1  0
  8  9  1  0
  9 10  1  0
 10 11  1  0
 11 12  1  0
 12 13  2  0
 12 14  1  0
 14 15  1  0
 15 16  2  0
 16 17  1  0
 17 18  2  0
 18 19  1  0
 19 20  1  0
 20 21  2  0
 21 22  1  0
 22 23  2  0
 10 24  2  0
 24 25  1  0
 25  4  1  0
 25  8  2  0
 23 15  1  0
 22 18  1  0
  1 26  1  0
  1 27  1  0
  1 28  1  0
  3 29  1  0
  3 30  1  0
  5 31  1  0
  6 32  1  0
  7 33  1  0
 11 34  1  0
 14 35  1  0
 14 36  1  0
 16 37  1  0
 17 38  1  0
 19 39  1  0
 20 40  1  0
 21 41  1  0
 23 42  1  0
M  END
>  <Energy>  (459) 
1110.1428955686661

>  <compound_id>  (459) 
20089

>  <target_id>  (459) 
1

>  <reference_id>  (459) 
40

>  <inspiration_ids>  (459) 
[69, 40]

>  <energy_score>  (459) 
989.3987073499046

>  <distance_score>  (459) 
9.476791682915092

>  <path>  (459) 
/opt/xchem-fragalysis-2/maxwin/BulkDock/SCRATCH/511016/C20089-P40/C20089-P40.minimised.mol

>  <scratch_subdir>  (459) 
/opt/xchem-fragalysis-2/maxwin/BulkDock/SCRATCH/511016/C20089-P40

>  <fragmenstein_runtime>  (459) 
14.796198606491089

>  <fragmenstein_outcome>  (459) 
too moved

>  <fragmenstein_mode>  (459) 
expansion

>  <fragmenstein_error>  (459) 


$$$$
C20091-P69
     RDKit          3D

 40 44  0  0  0  0  0  0  0  0999 V2000
   -4.0000   -4.5330   21.6114 O   0  0  0  0  0  0  0  0  0  0  0  0
   -4.4848   -3.8031   22.3320 C   0  0  0  0  0  0  0  0  0  0  0  0
   -3.5267   -3.7906   23.9720 N   0  0  0  0  0  0  0  0  0  0  0  0
   -2.1709   -4.8232   24.5827 C   0  0  0  0  0  0  0  0  0  0  0  0
   -1.7197   -5.2086   26.1408 C   0  0  0  0  0  0  0  0  0  0  0  0
   -0.8648   -6.2286   26.6104 C   0  0  0  0  0  0  0  0  0  0  0  0
    0.0373   -6.3730   25.5855 C   0  0  0  0  0  0  0  0  0  0  0  0
    1.2636   -5.8030   25.0558 N   0  0  0  0  0  0  0  0  0  0  0  0
    0.9252   -5.3568   23.7677 C   0  0  0  0  0  0  0  0  0  0  0  0
    0.5057   -6.5406   23.4019 C   0  0  0  0  0  0  0  0  0  0  0  0
   -0.4968   -6.3810   24.3019 C   0  0  0  0  0  0  0  0  0  0  0  0
   -1.7905   -5.9887   24.0992 C   0  0  0  0  0  0  0  0  0  0  0  0
   -6.3320   -3.1038   21.5287 C   0  0  0  0  0  0  0  0  0  0  0  0
   -6.6914   -4.2551   22.0738 N   0  0  0  0  0  0  0  0  0  0  0  0
   -6.1742   -5.3670   21.4796 C   0  0  0  0  0  0  0  0  0  0  0  0
   -5.3491   -4.9398   20.5196 C   0  0  0  0  0  0  0  0  0  0  0  0
   -5.5091   -3.4548   20.0056 N   0  0  0  0  0  0  0  0  0  0  0  0
   -7.1455   -2.6056   19.8236 C   0  0  0  0  0  0  0  0  0  0  0  0
   -7.2221   -1.5384   17.8210 C   0  0  0  0  0  0  0  0  0  0  0  0
   -7.0307   -2.3049   16.2018 N   0  0  0  0  0  0  0  0  0  0  0  0
   -7.1989   -1.5778   15.2319 C   0  0  0  0  0  0  0  0  0  0  0  0
   -7.4157   -1.9349   14.0060 C   0  0  0  0  0  0  0  0  0  0  0  0
   -7.3009   -0.8851   12.5771 C   0  0  0  0  0  0  0  0  0  0  0  0
   -6.3535   -0.0817   12.8686 C   0  0  0  0  0  0  0  0  0  0  0  0
   -5.9516   -0.2376   14.2898 C   0  0  0  0  0  0  0  0  0  0  0  0
   -5.9888   -1.4716   14.7870 C   0  0  0  0  0  0  0  0  0  0  0  0
   -6.2936   -2.8051   15.8602 S   0  0  0  0  0  0  0  0  0  0  0  0
   -3.9336   -3.0621   24.5630 H   0  0  0  0  0  0  0  0  0  0  0  0
   -1.6813   -4.4635   26.9342 H   0  0  0  0  0  0  0  0  0  0  0  0
   -0.7450   -6.4006   27.6581 H   0  0  0  0  0  0  0  0  0  0  0  0
    1.9992   -5.3071   25.5382 H   0  0  0  0  0  0  0  0  0  0  0  0
    1.1478   -4.4276   23.2309 H   0  0  0  0  0  0  0  0  0  0  0  0
    0.4478   -6.9617   22.3839 H   0  0  0  0  0  0  0  0  0  0  0  0
   -1.9040   -6.8313   24.7711 H   0  0  0  0  0  0  0  0  0  0  0  0
   -6.3570   -6.3333   21.9028 H   0  0  0  0  0  0  0  0  0  0  0  0
   -4.4994   -5.2615   19.8820 H   0  0  0  0  0  0  0  0  0  0  0  0
   -7.5706   -3.1314   13.9444 H   0  0  0  0  0  0  0  0  0  0  0  0
   -7.6662   -0.8560   11.5893 H   0  0  0  0  0  0  0  0  0  0  0  0
   -5.6137   -0.2043   12.0880 H   0  0  0  0  0  0  0  0  0  0  0  0
   -5.5777    0.5309   14.9012 H   0  0  0  0  0  0  0  0  0  0  0  0
  1  2  2  0
  2  3  1  0
  3  4  1  0
  4  5  2  0
  5  6  1  0
  6  7  2  0
  7  8  1  0
  8  9  1  0
  9 10  2  0
 10 11  1  0
 11 12  2  0
  2 13  1  0
 13 14  2  0
 14 15  1  0
 15 16  2  0
 16 17  1  0
 17 18  2  0
 18 19  1  0
 19 20  2  0
 20 21  1  0
 21 22  2  0
 22 23  1  0
 23 24  2  0
 24 25  1  0
 25 26  2  0
 26 27  1  0
 12  4  1  0
 18 13  1  0
 27 19  1  0
 11  7  1  0
 26 21  1  0
  3 28  1  0
  5 29  1  0
  6 30  1  0
  8 31  1  0
  9 32  1  0
 10 33  1  0
 12 34  1  0
 15 35  1  0
 16 36  1  0
 22 37  1  0
 23 38  1  0
 24 39  1  0
 25 40  1  0
M  END
>  <Energy>  (460) 
2347.5871858434239

>  <compound_id>  (460) 
20091

>  <target_id>  (460) 
1

>  <reference_id>  (460) 
69

>  <inspiration_ids>  (460) 
[69, 40]

>  <energy_score>  (460) 
2124.5757449288076

>  <distance_score>  (460) 
7.300647003936901

>  <path>  (460) 
/opt/xchem-fragalysis-2/maxwin/BulkDock/SCRATCH/511016/C20091-P69/C20091-P69.minimised.mol

>  <scratch_subdir>  (460) 
/opt/xchem-fragalysis-2/maxwin/BulkDock/SCRATCH/511016/C20091-P69

>  <fragmenstein_runtime>  (460) 
23.164043426513672

>  <fragmenstein_outcome>  (460) 
too moved

>  <fragmenstein_mode>  (460) 
expansion

>  <fragmenstein_error>  (460) 


$$$$
C20091-P40
     RDKit          3D

 40 44  0  0  0  0  0  0  0  0999 V2000
   -3.5631   -7.8166   21.0498 O   0  0  0  0  0  0  0  0  0  0  0  0
   -2.5075   -7.6290   20.5094 C   0  0  0  0  0  0  0  0  0  0  0  0
   -0.9305   -7.3687   21.6099 N   0  0  0  0  0  0  0  0  0  0  0  0
   -0.7198   -7.1161   23.5348 C   0  0  0  0  0  0  0  0  0  0  0  0
    0.4389   -5.6809   24.1144 C   0  0  0  0  0  0  0  0  0  0  0  0
    1.2180   -5.8090   25.8952 C   0  0  0  0  0  0  0  0  0  0  0  0
    0.6060   -6.7614   27.4577 C   0  0  0  0  0  0  0  0  0  0  0  0
    0.9489   -6.9965   28.7508 N   0  0  0  0  0  0  0  0  0  0  0  0
   -0.1297   -7.5012   29.4492 C   0  0  0  0  0  0  0  0  0  0  0  0
   -1.2652   -7.6299   28.6562 C   0  0  0  0  0  0  0  0  0  0  0  0
   -1.0076   -7.7826   27.0184 C   0  0  0  0  0  0  0  0  0  0  0  0
   -1.7252   -7.2580   25.0548 C   0  0  0  0  0  0  0  0  0  0  0  0
   -2.7115   -7.3104   18.3869 C   0  0  0  0  0  0  0  0  0  0  0  0
   -2.9262   -6.0833   18.9060 N   0  0  0  0  0  0  0  0  0  0  0  0
   -4.0079   -4.7349   18.8828 C   0  0  0  0  0  0  0  0  0  0  0  0
   -4.6400   -4.4641   17.7530 C   0  0  0  0  0  0  0  0  0  0  0  0
   -4.8853   -5.4909   17.1003 N   0  0  0  0  0  0  0  0  0  0  0  0
   -3.7619   -6.2764   17.0337 C   0  0  0  0  0  0  0  0  0  0  0  0
   -3.5132   -5.0193   15.2892 C   0  0  0  0  0  0  0  0  0  0  0  0
   -1.8740   -4.7221   14.5717 N   0  0  0  0  0  0  0  0  0  0  0  0
   -0.7883   -5.5902   13.6251 C   0  0  0  0  0  0  0  0  0  0  0  0
    0.5854   -5.7449   13.3916 C   0  0  0  0  0  0  0  0  0  0  0  0
    0.9478   -6.4740   12.2354 C   0  0  0  0  0  0  0  0  0  0  0  0
   -0.0066   -6.9879   11.3375 C   0  0  0  0  0  0  0  0  0  0  0  0
   -1.3688   -6.7892   11.5413 C   0  0  0  0  0  0  0  0  0  0  0  0
   -1.6257   -6.0798   12.6924 C   0  0  0  0  0  0  0  0  0  0  0  0
   -2.2978   -4.6098   13.2112 S   0  0  0  0  0  0  0  0  0  0  0  0
   -0.1097   -7.3147   21.0065 H   0  0  0  0  0  0  0  0  0  0  0  0
    0.7927   -5.0683   23.2973 H   0  0  0  0  0  0  0  0  0  0  0  0
    2.1897   -5.3302   26.1080 H   0  0  0  0  0  0  0  0  0  0  0  0
    1.7607   -6.5830   29.1891 H   0  0  0  0  0  0  0  0  0  0  0  0
   -0.0761   -7.4533   30.5308 H   0  0  0  0  0  0  0  0  0  0  0  0
   -2.2455   -7.3511   29.0155 H   0  0  0  0  0  0  0  0  0  0  0  0
   -1.9332   -6.1442   24.6114 H   0  0  0  0  0  0  0  0  0  0  0  0
   -4.3219   -4.3787   19.8522 H   0  0  0  0  0  0  0  0  0  0  0  0
   -4.9794   -3.6779   17.1833 H   0  0  0  0  0  0  0  0  0  0  0  0
    1.3536   -5.3167   14.0157 H   0  0  0  0  0  0  0  0  0  0  0  0
    2.0053   -6.6147   12.0150 H   0  0  0  0  0  0  0  0  0  0  0  0
    0.3262   -7.4902   10.4304 H   0  0  0  0  0  0  0  0  0  0  0  0
   -2.1121   -7.0047   10.7851 H   0  0  0  0  0  0  0  0  0  0  0  0
  1  2  2  0
  2  3  1  0
  3  4  1  0
  4  5  2  0
  5  6  1  0
  6  7  2  0
  7  8  1  0
  8  9  1  0
  9 10  2  0
 10 11  1  0
 11 12  2  0
  2 13  1  0
 13 14  2  0
 14 15  1  0
 15 16  2  0
 16 17  1  0
 17 18  2  0
 18 19  1  0
 19 20  2  0
 20 21  1  0
 21 22  2  0
 22 23  1  0
 23 24  2  0
 24 25  1  0
 25 26  2  0
 26 27  1  0
 12  4  1  0
 18 13  1  0
 27 19  1  0
 11  7  1  0
 26 21  1  0
  3 28  1  0
  5 29  1  0
  6 30  1  0
  8 31  1  0
  9 32  1  0
 10 33  1  0
 12 34  1  0
 15 35  1  0
 16 36  1  0
 22 37  1  0
 23 38  1  0
 24 39  1  0
 25 40  1  0
M  END
>  <Energy>  (461) 
2269.1456579683395

>  <compound_id>  (461) 
20091

>  <target_id>  (461) 
1

>  <reference_id>  (461) 
40

>  <inspiration_ids>  (461) 
[69, 40]

>  <energy_score>  (461) 
2046.1342170537241

>  <distance_score>  (461) 
8.64484995172559

>  <path>  (461) 
/opt/xchem-fragalysis-2/maxwin/BulkDock/SCRATCH/511016/C20091-P40/C20091-P40.minimised.mol

>  <scratch_subdir>  (461) 
/opt/xchem-fragalysis-2/maxwin/BulkDock/SCRATCH/511016/C20091-P40

>  <fragmenstein_runtime>  (461) 
24.27535653114319

>  <fragmenstein_outcome>  (461) 
too moved

>  <fragmenstein_mode>  (461) 
expansion

>  <fragmenstein_error>  (461) 


$$$$
C20091-P69
     RDKit          3D

 40 44  0  0  0  0  0  0  0  0999 V2000
   -4.0000   -4.5330   21.6114 O   0  0  0  0  0  0  0  0  0  0  0  0
   -4.4848   -3.8031   22.3320 C   0  0  0  0  0  0  0  0  0  0  0  0
   -3.5267   -3.7906   23.9720 N   0  0  0  0  0  0  0  0  0  0  0  0
   -2.1709   -4.8232   24.5827 C   0  0  0  0  0  0  0  0  0  0  0  0
   -1.7197   -5.2086   26.1408 C   0  0  0  0  0  0  0  0  0  0  0  0
   -0.8648   -6.2286   26.6104 C   0  0  0  0  0  0  0  0  0  0  0  0
    0.0373   -6.3730   25.5855 C   0  0  0  0  0  0  0  0  0  0  0  0
    1.2636   -5.8030   25.0558 N   0  0  0  0  0  0  0  0  0  0  0  0
    0.9252   -5.3568   23.7677 C   0  0  0  0  0  0  0  0  0  0  0  0
    0.5057   -6.5406   23.4019 C   0  0  0  0  0  0  0  0  0  0  0  0
   -0.4968   -6.3810   24.3019 C   0  0  0  0  0  0  0  0  0  0  0  0
   -1.7905   -5.9887   24.0992 C   0  0  0  0  0  0  0  0  0  0  0  0
   -6.3320   -3.1038   21.5287 C   0  0  0  0  0  0  0  0  0  0  0  0
   -6.6914   -4.2551   22.0738 N   0  0  0  0  0  0  0  0  0  0  0  0
   -6.1742   -5.3670   21.4796 C   0  0  0  0  0  0  0  0  0  0  0  0
   -5.3491   -4.9398   20.5196 C   0  0  0  0  0  0  0  0  0  0  0  0
   -5.5091   -3.4548   20.0056 N   0  0  0  0  0  0  0  0  0  0  0  0
   -7.1455   -2.6056   19.8236 C   0  0  0  0  0  0  0  0  0  0  0  0
   -7.2221   -1.5384   17.8210 C   0  0  0  0  0  0  0  0  0  0  0  0
   -7.0307   -2.3049   16.2018 N   0  0  0  0  0  0  0  0  0  0  0  0
   -7.1989   -1.5778   15.2319 C   0  0  0  0  0  0  0  0  0  0  0  0
   -7.4157   -1.9349   14.0060 C   0  0  0  0  0  0  0  0  0  0  0  0
   -7.3009   -0.8851   12.5771 C   0  0  0  0  0  0  0  0  0  0  0  0
   -6.3535   -0.0817   12.8686 C   0  0  0  0  0  0  0  0  0  0  0  0
   -5.9516   -0.2376   14.2898 C   0  0  0  0  0  0  0  0  0  0  0  0
   -5.9888   -1.4716   14.7870 C   0  0  0  0  0  0  0  0  0  0  0  0
   -6.2936   -2.8051   15.8602 S   0  0  0  0  0  0  0  0  0  0  0  0
   -3.9336   -3.0621   24.5630 H   0  0  0  0  0  0  0  0  0  0  0  0
   -1.6813   -4.4635   26.9342 H   0  0  0  0  0  0  0  0  0  0  0  0
   -0.7450   -6.4006   27.6581 H   0  0  0  0  0  0  0  0  0  0  0  0
    1.9992   -5.3071   25.5382 H   0  0  0  0  0  0  0  0  0  0  0  0
    1.1478   -4.4276   23.2309 H   0  0  0  0  0  0  0  0  0  0  0  0
    0.4478   -6.9617   22.3839 H   0  0  0  0  0  0  0  0  0  0  0  0
   -1.9040   -6.8313   24.7711 H   0  0  0  0  0  0  0  0  0  0  0  0
   -6.3570   -6.3333   21.9028 H   0  0  0  0  0  0  0  0  0  0  0  0
   -4.4994   -5.2615   19.8820 H   0  0  0  0  0  0  0  0  0  0  0  0
   -7.5706   -3.1314   13.9444 H   0  0  0  0  0  0  0  0  0  0  0  0
   -7.6662   -0.8560   11.5893 H   0  0  0  0  0  0  0  0  0  0  0  0
   -5.6137   -0.2043   12.0880 H   0  0  0  0  0  0  0  0  0  0  0  0
   -5.5777    0.5309   14.9012 H   0  0  0  0  0  0  0  0  0  0  0  0
  1  2  2  0
  2  3  1  0
  3  4  1  0
  4  5  2  0
  5  6  1  0
  6  7  2  0
  7  8  1  0
  8  9  1  0
  9 10  2  0
 10 11  1  0
 11 12  2  0
  2 13  1  0
 13 14  2  0
 14 15  1  0
 15 16  2  0
 16 17  1  0
 17 18  2  0
 18 19  1  0
 19 20  2  0
 20 21  1  0
 21 22  2  0
 22 23  1  0
 23 24  2  0
 24 25  1  0
 25 26  2  0
 26 27  1  0
 12  4  1  0
 18 13  1  0
 27 19  1  0
 11  7  1  0
 26 21  1  0
  3 28  1  0
  5 29  1  0
  6 30  1  0
  8 31  1  0
  9 32  1  0
 10 33  1  0
 12 34  1  0
 15 35  1  0
 16 36  1  0
 22 37  1  0
 23 38  1  0
 24 39  1  0
 25 40  1  0
M  END
>  <Energy>  (462) 
2347.5871858434239

>  <compound_id>  (462) 
20091

>  <target_id>  (462) 
1

>  <reference_id>  (462) 
69

>  <inspiration_ids>  (462) 
[69, 40]

>  <energy_score>  (462) 
2124.5757449288076

>  <distance_score>  (462) 
7.300647003936901

>  <path>  (462) 
/opt/xchem-fragalysis-2/maxwin/BulkDock/SCRATCH/511016/C20091-P69/C20091-P69.minimised.mol

>  <scratch_subdir>  (462) 
/opt/xchem-fragalysis-2/maxwin/BulkDock/SCRATCH/511016/C20091-P69

>  <fragmenstein_runtime>  (462) 
18.160354375839233

>  <fragmenstein_outcome>  (462) 
too moved

>  <fragmenstein_mode>  (462) 
expansion

>  <fragmenstein_error>  (462) 


$$$$
C20091-P40
     RDKit          3D

 40 44  0  0  0  0  0  0  0  0999 V2000
   -3.5631   -7.8166   21.0498 O   0  0  0  0  0  0  0  0  0  0  0  0
   -2.5075   -7.6290   20.5094 C   0  0  0  0  0  0  0  0  0  0  0  0
   -0.9305   -7.3687   21.6099 N   0  0  0  0  0  0  0  0  0  0  0  0
   -0.7198   -7.1161   23.5348 C   0  0  0  0  0  0  0  0  0  0  0  0
    0.4389   -5.6809   24.1144 C   0  0  0  0  0  0  0  0  0  0  0  0
    1.2180   -5.8090   25.8952 C   0  0  0  0  0  0  0  0  0  0  0  0
    0.6060   -6.7614   27.4577 C   0  0  0  0  0  0  0  0  0  0  0  0
    0.9489   -6.9965   28.7508 N   0  0  0  0  0  0  0  0  0  0  0  0
   -0.1297   -7.5012   29.4492 C   0  0  0  0  0  0  0  0  0  0  0  0
   -1.2652   -7.6299   28.6562 C   0  0  0  0  0  0  0  0  0  0  0  0
   -1.0076   -7.7826   27.0184 C   0  0  0  0  0  0  0  0  0  0  0  0
   -1.7252   -7.2580   25.0548 C   0  0  0  0  0  0  0  0  0  0  0  0
   -2.7115   -7.3104   18.3869 C   0  0  0  0  0  0  0  0  0  0  0  0
   -2.9262   -6.0833   18.9060 N   0  0  0  0  0  0  0  0  0  0  0  0
   -4.0079   -4.7349   18.8828 C   0  0  0  0  0  0  0  0  0  0  0  0
   -4.6400   -4.4641   17.7530 C   0  0  0  0  0  0  0  0  0  0  0  0
   -4.8853   -5.4909   17.1003 N   0  0  0  0  0  0  0  0  0  0  0  0
   -3.7619   -6.2764   17.0337 C   0  0  0  0  0  0  0  0  0  0  0  0
   -3.5132   -5.0193   15.2892 C   0  0  0  0  0  0  0  0  0  0  0  0
   -1.8740   -4.7221   14.5717 N   0  0  0  0  0  0  0  0  0  0  0  0
   -0.7883   -5.5902   13.6251 C   0  0  0  0  0  0  0  0  0  0  0  0
    0.5854   -5.7449   13.3916 C   0  0  0  0  0  0  0  0  0  0  0  0
    0.9478   -6.4740   12.2354 C   0  0  0  0  0  0  0  0  0  0  0  0
   -0.0066   -6.9879   11.3375 C   0  0  0  0  0  0  0  0  0  0  0  0
   -1.3688   -6.7892   11.5413 C   0  0  0  0  0  0  0  0  0  0  0  0
   -1.6257   -6.0798   12.6924 C   0  0  0  0  0  0  0  0  0  0  0  0
   -2.2978   -4.6098   13.2112 S   0  0  0  0  0  0  0  0  0  0  0  0
   -0.1097   -7.3147   21.0065 H   0  0  0  0  0  0  0  0  0  0  0  0
    0.7927   -5.0683   23.2973 H   0  0  0  0  0  0  0  0  0  0  0  0
    2.1897   -5.3302   26.1080 H   0  0  0  0  0  0  0  0  0  0  0  0
    1.7607   -6.5830   29.1891 H   0  0  0  0  0  0  0  0  0  0  0  0
   -0.0761   -7.4533   30.5308 H   0  0  0  0  0  0  0  0  0  0  0  0
   -2.2455   -7.3511   29.0155 H   0  0  0  0  0  0  0  0  0  0  0  0
   -1.9332   -6.1442   24.6114 H   0  0  0  0  0  0  0  0  0  0  0  0
   -4.3219   -4.3787   19.8522 H   0  0  0  0  0  0  0  0  0  0  0  0
   -4.9794   -3.6779   17.1833 H   0  0  0  0  0  0  0  0  0  0  0  0
    1.3536   -5.3167   14.0157 H   0  0  0  0  0  0  0  0  0  0  0  0
    2.0053   -6.6147   12.0150 H   0  0  0  0  0  0  0  0  0  0  0  0
    0.3262   -7.4902   10.4304 H   0  0  0  0  0  0  0  0  0  0  0  0
   -2.1121   -7.0047   10.7851 H   0  0  0  0  0  0  0  0  0  0  0  0
  1  2  2  0
  2  3  1  0
  3  4  1  0
  4  5  2  0
  5  6  1  0
  6  7  2  0
  7  8  1  0
  8  9  1  0
  9 10  2  0
 10 11  1  0
 11 12  2  0
  2 13  1  0
 13 14  2  0
 14 15  1  0
 15 16  2  0
 16 17  1  0
 17 18  2  0
 18 19  1  0
 19 20  2  0
 20 21  1  0
 21 22  2  0
 22 23  1  0
 23 24  2  0
 24 25  1  0
 25 26  2  0
 26 27  1  0
 12  4  1  0
 18 13  1  0
 27 19  1  0
 11  7  1  0
 26 21  1  0
  3 28  1  0
  5 29  1  0
  6 30  1  0
  8 31  1  0
  9 32  1  0
 10 33  1  0
 12 34  1  0
 15 35  1  0
 16 36  1  0
 22 37  1  0
 23 38  1  0
 24 39  1  0
 25 40  1  0
M  END
>  <Energy>  (463) 
2269.1456579683395

>  <compound_id>  (463) 
20091

>  <target_id>  (463) 
1

>  <reference_id>  (463) 
40

>  <inspiration_ids>  (463) 
[69, 40]

>  <energy_score>  (463) 
2046.1342170537241

>  <distance_score>  (463) 
8.64484995172559

>  <path>  (463) 
/opt/xchem-fragalysis-2/maxwin/BulkDock/SCRATCH/511016/C20091-P40/C20091-P40.minimised.mol

>  <scratch_subdir>  (463) 
/opt/xchem-fragalysis-2/maxwin/BulkDock/SCRATCH/511016/C20091-P40

>  <fragmenstein_runtime>  (463) 
30.20588779449463

>  <fragmenstein_outcome>  (463) 
too moved

>  <fragmenstein_mode>  (463) 
expansion

>  <fragmenstein_error>  (463) 


$$$$
C20093-P69
     RDKit          3D

 47 51  0  0  0  0  0  0  0  0999 V2000
   -3.5597   -3.0715   22.2830 O   0  0  0  0  0  0  0  0  0  0  0  0
   -3.7161   -4.2836   21.9941 C   0  0  0  0  0  0  0  0  0  0  0  0
   -2.9598   -5.6413   23.2303 N   0  0  0  0  0  0  0  0  0  0  0  0
   -1.7992   -5.5011   24.7292 C   0  0  0  0  0  0  0  0  0  0  0  0
   -1.6413   -5.5248   26.1244 C   0  0  0  0  0  0  0  0  0  0  0  0
   -0.6787   -4.4309   26.8496 C   0  0  0  0  0  0  0  0  0  0  0  0
    0.8240   -3.4780   26.3509 C   0  0  0  0  0  0  0  0  0  0  0  0
    1.7410   -2.4505   26.3569 N   0  0  0  0  0  0  0  0  0  0  0  0
    2.9695   -2.8416   25.9847 C   0  0  0  0  0  0  0  0  0  0  0  0
    2.8857   -4.1516   25.5782 C   0  0  0  0  0  0  0  0  0  0  0  0
    1.3857   -4.7697   25.2047 C   0  0  0  0  0  0  0  0  0  0  0  0
    0.0387   -5.9216   24.4661 C   0  0  0  0  0  0  0  0  0  0  0  0
   -4.4749   -4.4059   20.0320 C   0  0  0  0  0  0  0  0  0  0  0  0
   -3.4358   -2.8394   18.9993 C   0  0  0  0  0  0  0  0  0  0  0  0
   -2.0806   -2.3059   17.4833 C   0  0  0  0  0  0  0  0  0  0  0  0
   -2.1320   -2.8916   15.5115 N   0  0  0  0  0  0  0  0  0  0  0  0
   -2.1819   -2.3714   13.4865 C   0  0  0  0  0  0  0  0  0  0  0  0
   -3.0026   -0.9033   12.6953 N   0  0  0  0  0  0  0  0  0  0  0  0
   -4.2058   -0.4054   11.1479 C   0  0  0  0  0  0  0  0  0  0  0  0
   -5.0547   -0.5411    9.8032 C   0  0  0  0  0  0  0  0  0  0  0  0
   -5.1289   -0.0649    8.4829 C   0  0  0  0  0  0  0  0  0  0  0  0
   -4.0107   -0.4505    7.8181 C   0  0  0  0  0  0  0  0  0  0  0  0
   -2.8214   -0.5804    8.5362 C   0  0  0  0  0  0  0  0  0  0  0  0
   -2.7905   -0.2034    9.9310 C   0  0  0  0  0  0  0  0  0  0  0  0
   -1.4660   -0.5935   12.0104 S   0  0  0  0  0  0  0  0  0  0  0  0
   -3.7522   -4.0139   16.3326 C   0  0  0  0  0  0  0  0  0  0  0  0
   -4.2477   -5.0200   18.0789 C   0  0  0  0  0  0  0  0  0  0  0  0
   -3.2739   -6.6365   22.8947 H   0  0  0  0  0  0  0  0  0  0  0  0
   -2.1579   -6.1723   26.8196 H   0  0  0  0  0  0  0  0  0  0  0  0
   -1.2989   -3.9883   27.6027 H   0  0  0  0  0  0  0  0  0  0  0  0
    1.5031   -1.5302   26.6760 H   0  0  0  0  0  0  0  0  0  0  0  0
    3.8243   -2.1859   26.0788 H   0  0  0  0  0  0  0  0  0  0  0  0
    3.8466   -4.5968   25.3518 H   0  0  0  0  0  0  0  0  0  0  0  0
    0.4594   -6.2342   23.5265 H   0  0  0  0  0  0  0  0  0  0  0  0
   -5.2895   -3.8046   20.2850 H   0  0  0  0  0  0  0  0  0  0  0  0
   -3.9830   -3.3042   18.2527 H   0  0  0  0  0  0  0  0  0  0  0  0
   -3.8481   -1.8270   19.1486 H   0  0  0  0  0  0  0  0  0  0  0  0
   -1.0302   -2.4048   17.7644 H   0  0  0  0  0  0  0  0  0  0  0  0
   -2.3908   -1.3257   17.6845 H   0  0  0  0  0  0  0  0  0  0  0  0
   -4.8094   -1.5786    9.4976 H   0  0  0  0  0  0  0  0  0  0  0  0
   -6.0872   -0.0201    7.9714 H   0  0  0  0  0  0  0  0  0  0  0  0
   -4.0505   -0.7115    6.7636 H   0  0  0  0  0  0  0  0  0  0  0  0
   -1.9889   -1.0455    8.0526 H   0  0  0  0  0  0  0  0  0  0  0  0
   -4.7469   -3.5712   16.0858 H   0  0  0  0  0  0  0  0  0  0  0  0
   -4.1177   -4.8179   15.6482 H   0  0  0  0  0  0  0  0  0  0  0  0
   -3.7147   -5.9792   18.1692 H   0  0  0  0  0  0  0  0  0  0  0  0
   -5.1626   -5.4651   17.6592 H   0  0  0  0  0  0  0  0  0  0  0  0
  1  2  2  0
  2  3  1  0
  3  4  1  0
  4  5  2  0
  5  6  1  0
  6  7  2  0
  7  8  1  0
  8  9  1  0
  9 10  2  0
 10 11  1  0
 11 12  2  0
  2 13  1  0
 13 14  1  0
 14 15  1  0
 15 16  1  0
 16 17  1  0
 17 18  2  0
 18 19  1  0
 19 20  2  0
 20 21  1  0
 21 22  2  0
 22 23  1  0
 23 24  2  0
 24 25  1  0
 16 26  1  0
 26 27  1  0
 12  4  1  0
 27 13  1  0
 11  7  1  0
 25 17  1  0
 24 19  1  0
  3 28  1  0
  5 29  1  0
  6 30  1  0
  8 31  1  0
  9 32  1  0
 10 33  1  0
 12 34  1  0
 13 35  1  0
 14 36  1  0
 14 37  1  0
 15 38  1  0
 15 39  1  0
 20 40  1  0
 21 41  1  0
 22 42  1  0
 23 43  1  0
 26 44  1  0
 26 45  1  0
 27 46  1  0
 27 47  1  0
M  END
>  <Energy>  (464) 
2592.9298223753131

>  <compound_id>  (464) 
20093

>  <target_id>  (464) 
1

>  <reference_id>  (464) 
69

>  <inspiration_ids>  (464) 
[69, 40]

>  <energy_score>  (464) 
2514.8900789858944

>  <distance_score>  (464) 
6.039765667768023

>  <path>  (464) 
/opt/xchem-fragalysis-2/maxwin/BulkDock/SCRATCH/511016/C20093-P69/C20093-P69.minimised.mol

>  <scratch_subdir>  (464) 
/opt/xchem-fragalysis-2/maxwin/BulkDock/SCRATCH/511016/C20093-P69

>  <fragmenstein_runtime>  (464) 
37.12771654129028

>  <fragmenstein_outcome>  (464) 
too moved

>  <fragmenstein_mode>  (464) 
expansion

>  <fragmenstein_error>  (464) 


$$$$
C20093-P40
     RDKit          3D

 47 51  0  0  0  0  0  0  0  0999 V2000
   -2.5535   -5.9306   23.9467 O   0  0  0  0  0  0  0  0  0  0  0  0
   -2.1555   -4.9480   23.5219 C   0  0  0  0  0  0  0  0  0  0  0  0
   -0.2666   -4.6486   23.7915 N   0  0  0  0  0  0  0  0  0  0  0  0
    1.0824   -5.6235   24.7603 C   0  0  0  0  0  0  0  0  0  0  0  0
    2.1080   -6.7203   24.5213 C   0  0  0  0  0  0  0  0  0  0  0  0
    3.2895   -7.1875   25.2505 C   0  0  0  0  0  0  0  0  0  0  0  0
    3.5940   -6.6393   26.4800 C   0  0  0  0  0  0  0  0  0  0  0  0
    4.6442   -6.8449   27.3377 N   0  0  0  0  0  0  0  0  0  0  0  0
    4.4242   -6.1632   28.5071 C   0  0  0  0  0  0  0  0  0  0  0  0
    3.2290   -5.4922   28.3870 C   0  0  0  0  0  0  0  0  0  0  0  0
    2.7277   -5.7655   27.0898 C   0  0  0  0  0  0  0  0  0  0  0  0
    1.5929   -5.3576   26.3374 C   0  0  0  0  0  0  0  0  0  0  0  0
   -3.6921   -3.7862   22.3266 C   0  0  0  0  0  0  0  0  0  0  0  0
   -3.3636   -2.2763   21.5557 C   0  0  0  0  0  0  0  0  0  0  0  0
   -3.6866   -1.9414   19.4550 C   0  0  0  0  0  0  0  0  0  0  0  0
   -2.8535   -2.2210   18.4403 N   0  0  0  0  0  0  0  0  0  0  0  0
   -1.1836   -1.7500   17.8171 C   0  0  0  0  0  0  0  0  0  0  0  0
   -0.1909   -1.6041   16.6144 N   0  0  0  0  0  0  0  0  0  0  0  0
    0.5391   -0.1868   16.2888 C   0  0  0  0  0  0  0  0  0  0  0  0
    1.1488    0.5388   15.1534 C   0  0  0  0  0  0  0  0  0  0  0  0
    1.2915    1.9305   15.0958 C   0  0  0  0  0  0  0  0  0  0  0  0
    0.9904    2.6612   16.2149 C   0  0  0  0  0  0  0  0  0  0  0  0
    0.6609    1.9913   17.3911 C   0  0  0  0  0  0  0  0  0  0  0  0
    0.4472    0.6009   17.3630 C   0  0  0  0  0  0  0  0  0  0  0  0
    0.6830   -0.7785   18.3251 S   0  0  0  0  0  0  0  0  0  0  0  0
   -4.0108   -3.7901   19.0176 C   0  0  0  0  0  0  0  0  0  0  0  0
   -4.6287   -4.2376   20.8233 C   0  0  0  0  0  0  0  0  0  0  0  0
   -0.0345   -3.7233   23.4569 H   0  0  0  0  0  0  0  0  0  0  0  0
    1.8627   -7.5555   23.8538 H   0  0  0  0  0  0  0  0  0  0  0  0
    3.8768   -8.0024   24.8269 H   0  0  0  0  0  0  0  0  0  0  0  0
    5.4547   -7.4170   27.1345 H   0  0  0  0  0  0  0  0  0  0  0  0
    5.1515   -6.1986   29.3077 H   0  0  0  0  0  0  0  0  0  0  0  0
    2.7921   -4.8403   29.1329 H   0  0  0  0  0  0  0  0  0  0  0  0
    0.9822   -4.7116   26.9982 H   0  0  0  0  0  0  0  0  0  0  0  0
   -4.0827   -3.2637   23.1975 H   0  0  0  0  0  0  0  0  0  0  0  0
   -2.3718   -2.0130   22.0063 H   0  0  0  0  0  0  0  0  0  0  0  0
   -3.7131   -1.2887   21.8627 H   0  0  0  0  0  0  0  0  0  0  0  0
   -3.8385   -0.9292   19.3587 H   0  0  0  0  0  0  0  0  0  0  0  0
   -4.5598   -1.9223   18.9485 H   0  0  0  0  0  0  0  0  0  0  0  0
    1.2310    0.0415   14.1767 H   0  0  0  0  0  0  0  0  0  0  0  0
    1.6155    2.4139   14.1800 H   0  0  0  0  0  0  0  0  0  0  0  0
    1.1315    3.7381   16.2253 H   0  0  0  0  0  0  0  0  0  0  0  0
    0.6977    2.5503   18.3182 H   0  0  0  0  0  0  0  0  0  0  0  0
   -4.6118   -4.1250   18.1403 H   0  0  0  0  0  0  0  0  0  0  0  0
   -3.5986   -4.7877   19.0432 H   0  0  0  0  0  0  0  0  0  0  0  0
   -4.7068   -5.2909   20.9583 H   0  0  0  0  0  0  0  0  0  0  0  0
   -5.6780   -3.9269   20.9050 H   0  0  0  0  0  0  0  0  0  0  0  0
  1  2  2  0
  2  3  1  0
  3  4  1  0
  4  5  2  0
  5  6  1  0
  6  7  2  0
  7  8  1  0
  8  9  1  0
  9 10  2  0
 10 11  1  0
 11 12  2  0
  2 13  1  0
 13 14  1  0
 14 15  1  0
 15 16  1  0
 16 17  1  0
 17 18  2  0
 18 19  1  0
 19 20  2  0
 20 21  1  0
 21 22  2  0
 22 23  1  0
 23 24  2  0
 24 25  1  0
 16 26  1  0
 26 27  1  0
 12  4  1  0
 27 13  1  0
 11  7  1  0
 25 17  1  0
 24 19  1  0
  3 28  1  0
  5 29  1  0
  6 30  1  0
  8 31  1  0
  9 32  1  0
 10 33  1  0
 12 34  1  0
 13 35  1  0
 14 36  1  0
 14 37  1  0
 15 38  1  0
 15 39  1  0
 20 40  1  0
 21 41  1  0
 22 42  1  0
 23 43  1  0
 26 44  1  0
 26 45  1  0
 27 46  1  0
 27 47  1  0
M  END
>  <Energy>  (465) 
1252.5532822101704

>  <compound_id>  (465) 
20093

>  <target_id>  (465) 
1

>  <reference_id>  (465) 
40

>  <inspiration_ids>  (465) 
[69, 40]

>  <energy_score>  (465) 
1174.5135388207523

>  <distance_score>  (465) 
9.575024011425173

>  <path>  (465) 
/opt/xchem-fragalysis-2/maxwin/BulkDock/SCRATCH/511016/C20093-P40/C20093-P40.minimised.mol

>  <scratch_subdir>  (465) 
/opt/xchem-fragalysis-2/maxwin/BulkDock/SCRATCH/511016/C20093-P40

>  <fragmenstein_runtime>  (465) 
34.860461711883545

>  <fragmenstein_outcome>  (465) 
too moved

>  <fragmenstein_mode>  (465) 
expansion

>  <fragmenstein_error>  (465) 


$$$$
C20094-P69
     RDKit          3D

 45 49  0  0  0  0  0  0  0  0999 V2000
    1.1208   -2.7698   22.1229 O   0  0  0  0  0  0  0  0  0  0  0  0
    0.9655   -3.8215   21.6351 C   0  0  0  0  0  0  0  0  0  0  0  0
    0.9206   -5.2802   23.1061 N   0  0  0  0  0  0  0  0  0  0  0  0
    1.2491   -5.2654   25.2101 C   0  0  0  0  0  0  0  0  0  0  0  0
    0.2636   -6.0178   26.8908 C   0  0  0  0  0  0  0  0  0  0  0  0
    0.7280   -6.0405   28.9949 C   0  0  0  0  0  0  0  0  0  0  0  0
    2.5032   -4.9457   29.3188 C   0  0  0  0  0  0  0  0  0  0  0  0
    3.2762   -4.3382   30.3329 N   0  0  0  0  0  0  0  0  0  0  0  0
    4.5012   -3.8601   29.8559 C   0  0  0  0  0  0  0  0  0  0  0  0
    4.8128   -4.0186   28.5038 C   0  0  0  0  0  0  0  0  0  0  0  0
    3.8017   -4.7803   27.8515 C   0  0  0  0  0  0  0  0  0  0  0  0
    2.8400   -4.5668   26.1082 C   0  0  0  0  0  0  0  0  0  0  0  0
    0.6567   -3.9222   19.5653 N   0  0  0  0  0  0  0  0  0  0  0  0
    2.1515   -4.1024   18.4746 C   0  0  0  0  0  0  0  0  0  0  0  0
    2.8728   -3.0051   17.6054 C   0  0  0  0  0  0  0  0  0  0  0  0
    2.6780   -1.5975   18.0480 O   0  0  0  0  0  0  0  0  0  0  0  0
    1.3157   -1.1967   18.1122 C   0  0  0  0  0  0  0  0  0  0  0  0
    0.3891   -2.3814   17.9735 C   0  0  0  0  0  0  0  0  0  0  0  0
   -0.0341   -2.0865   15.7730 C   0  0  0  0  0  0  0  0  0  0  0  0
    0.3275   -1.4352   14.1157 N   0  0  0  0  0  0  0  0  0  0  0  0
   -0.7190   -0.6204   12.5768 C   0  0  0  0  0  0  0  0  0  0  0  0
   -0.9736   -1.1523   10.8342 C   0  0  0  0  0  0  0  0  0  0  0  0
   -2.2900   -0.7566    9.4258 C   0  0  0  0  0  0  0  0  0  0  0  0
   -3.8778   -0.3467    9.9464 C   0  0  0  0  0  0  0  0  0  0  0  0
   -3.9490   -0.4593   11.8261 C   0  0  0  0  0  0  0  0  0  0  0  0
   -2.3756   -1.1306   12.7890 C   0  0  0  0  0  0  0  0  0  0  0  0
   -1.3535   -3.0043   14.0080 S   0  0  0  0  0  0  0  0  0  0  0  0
    0.6986   -6.1521   22.6737 H   0  0  0  0  0  0  0  0  0  0  0  0
   -0.7236   -6.4614   26.6684 H   0  0  0  0  0  0  0  0  0  0  0  0
    0.0742   -6.3248   29.8545 H   0  0  0  0  0  0  0  0  0  0  0  0
    2.9515   -4.2325   31.2867 H   0  0  0  0  0  0  0  0  0  0  0  0
    5.0985   -3.3261   30.5860 H   0  0  0  0  0  0  0  0  0  0  0  0
    5.6540   -3.5469   28.0102 H   0  0  0  0  0  0  0  0  0  0  0  0
    3.5064   -3.9256   25.5171 H   0  0  0  0  0  0  0  0  0  0  0  0
    2.6000   -4.8499   19.1681 H   0  0  0  0  0  0  0  0  0  0  0  0
    1.4844   -4.0552   17.7041 H   0  0  0  0  0  0  0  0  0  0  0  0
    3.8951   -3.2105   17.3345 H   0  0  0  0  0  0  0  0  0  0  0  0
    2.3491   -3.1800   16.6875 H   0  0  0  0  0  0  0  0  0  0  0  0
    1.1335   -0.4228   17.3618 H   0  0  0  0  0  0  0  0  0  0  0  0
    1.1546   -0.7606   19.0651 H   0  0  0  0  0  0  0  0  0  0  0  0
   -0.6840   -2.0928   18.0263 H   0  0  0  0  0  0  0  0  0  0  0  0
    0.1035   -1.1218   10.3903 H   0  0  0  0  0  0  0  0  0  0  0  0
   -2.1225   -0.9892    8.3802 H   0  0  0  0  0  0  0  0  0  0  0  0
   -4.7452   -0.2703    9.3101 H   0  0  0  0  0  0  0  0  0  0  0  0
   -5.0527   -0.5165   11.9396 H   0  0  0  0  0  0  0  0  0  0  0  0
  1  2  2  0
  2  3  1  0
  3  4  1  0
  4  5  2  0
  5  6  1  0
  6  7  2  0
  7  8  1  0
  8  9  1  0
  9 10  2  0
 10 11  1  0
 11 12  2  0
  2 13  1  0
 13 14  1  0
 14 15  1  0
 15 16  1  0
 16 17  1  0
 17 18  1  0
 18 19  1  0
 19 20  2  0
 20 21  1  0
 21 22  2  0
 22 23  1  0
 23 24  2  0
 24 25  1  0
 25 26  2  0
 26 27  1  0
 12  4  1  0
 18 13  1  0
 27 19  1  0
 11  7  1  0
 26 21  1  0
  3 28  1  0
  5 29  1  0
  6 30  1  0
  8 31  1  0
  9 32  1  0
 10 33  1  0
 12 34  1  0
 14 35  1  0
 14 36  1  0
 15 37  1  0
 15 38  1  0
 17 39  1  0
 17 40  1  0
 18 41  1  0
 22 42  1  0
 23 43  1  0
 24 44  1  0
 25 45  1  0
M  END
>  <Energy>  (466) 
3125.2260459175686

>  <compound_id>  (466) 
20094

>  <target_id>  (466) 
1

>  <reference_id>  (466) 
69

>  <inspiration_ids>  (466) 
[69, 40]

>  <energy_score>  (466) 
3039.5529076919647

>  <distance_score>  (466) 
6.959897430823196

>  <path>  (466) 
/opt/xchem-fragalysis-2/maxwin/BulkDock/SCRATCH/511016/C20094-P69/C20094-P69.minimised.mol

>  <scratch_subdir>  (466) 
/opt/xchem-fragalysis-2/maxwin/BulkDock/SCRATCH/511016/C20094-P69

>  <fragmenstein_runtime>  (466) 
16.94657874107361

>  <fragmenstein_outcome>  (466) 
too moved

>  <fragmenstein_mode>  (466) 
expansion

>  <fragmenstein_error>  (466) 


$$$$
C20094-P40
     RDKit          3D

 45 49  0  0  0  0  0  0  0  0999 V2000
   -4.5464   -3.4908   19.1951 O   0  0  0  0  0  0  0  0  0  0  0  0
   -4.4212   -4.5725   19.2489 C   0  0  0  0  0  0  0  0  0  0  0  0
   -4.4249   -5.1043   21.0180 N   0  0  0  0  0  0  0  0  0  0  0  0
   -4.6678   -4.3794   22.2625 C   0  0  0  0  0  0  0  0  0  0  0  0
   -5.7425   -4.9648   22.9765 C   0  0  0  0  0  0  0  0  0  0  0  0
   -6.4786   -4.3258   24.0121 C   0  0  0  0  0  0  0  0  0  0  0  0
   -5.9769   -3.1145   24.4940 C   0  0  0  0  0  0  0  0  0  0  0  0
   -6.3075   -2.3547   25.5904 N   0  0  0  0  0  0  0  0  0  0  0  0
   -5.4203   -1.3187   25.7268 C   0  0  0  0  0  0  0  0  0  0  0  0
   -4.5275   -1.3832   24.6845 C   0  0  0  0  0  0  0  0  0  0  0  0
   -4.8732   -2.5162   23.9069 C   0  0  0  0  0  0  0  0  0  0  0  0
   -4.3489   -3.1009   22.7322 C   0  0  0  0  0  0  0  0  0  0  0  0
   -4.4982   -5.5285   17.4989 N   0  0  0  0  0  0  0  0  0  0  0  0
   -6.2129   -6.0762   17.1447 C   0  0  0  0  0  0  0  0  0  0  0  0
   -7.2088   -5.5137   18.0008 C   0  0  0  0  0  0  0  0  0  0  0  0
   -6.2753   -4.4933   18.2006 O   0  0  0  0  0  0  0  0  0  0  0  0
   -5.0324   -4.0655   16.9049 C   0  0  0  0  0  0  0  0  0  0  0  0
   -4.8321   -4.8105   15.6755 C   0  0  0  0  0  0  0  0  0  0  0  0
   -6.0000   -4.3860   14.0463 C   0  0  0  0  0  0  0  0  0  0  0  0
   -7.4213   -4.4540   13.9520 N   0  0  0  0  0  0  0  0  0  0  0  0
   -8.2534   -4.6233   12.6864 C   0  0  0  0  0  0  0  0  0  0  0  0
   -9.6197   -4.4599   12.5539 C   0  0  0  0  0  0  0  0  0  0  0  0
   -9.9350   -4.3102   11.1552 C   0  0  0  0  0  0  0  0  0  0  0  0
   -9.1969   -4.5278    9.6770 C   0  0  0  0  0  0  0  0  0  0  0  0
   -7.8325   -4.8322    9.7383 C   0  0  0  0  0  0  0  0  0  0  0  0
   -7.4851   -4.7637   11.3874 C   0  0  0  0  0  0  0  0  0  0  0  0
   -5.7811   -5.1916   11.8407 S   0  0  0  0  0  0  0  0  0  0  0  0
   -4.4034   -6.0572   21.0428 H   0  0  0  0  0  0  0  0  0  0  0  0
   -6.1470   -5.9212   22.6512 H   0  0  0  0  0  0  0  0  0  0  0  0
   -7.3303   -4.8174   24.4708 H   0  0  0  0  0  0  0  0  0  0  0  0
   -7.0623   -2.5610   26.2297 H   0  0  0  0  0  0  0  0  0  0  0  0
   -5.5015   -0.6223   26.5489 H   0  0  0  0  0  0  0  0  0  0  0  0
   -3.6957   -0.7105   24.5204 H   0  0  0  0  0  0  0  0  0  0  0  0
   -3.6377   -2.4562   22.2414 H   0  0  0  0  0  0  0  0  0  0  0  0
   -6.5982   -6.3083   16.1600 H   0  0  0  0  0  0  0  0  0  0  0  0
   -6.1395   -7.1240   17.4755 H   0  0  0  0  0  0  0  0  0  0  0  0
   -8.1375   -5.2913   17.4589 H   0  0  0  0  0  0  0  0  0  0  0  0
   -7.5453   -5.9068   18.9400 H   0  0  0  0  0  0  0  0  0  0  0  0
   -4.1727   -3.8187   17.3613 H   0  0  0  0  0  0  0  0  0  0  0  0
   -5.2761   -3.1815   16.5643 H   0  0  0  0  0  0  0  0  0  0  0  0
   -3.9688   -4.8204   15.1614 H   0  0  0  0  0  0  0  0  0  0  0  0
  -10.2526   -4.1315   13.3639 H   0  0  0  0  0  0  0  0  0  0  0  0
  -10.5430   -3.3893   11.1934 H   0  0  0  0  0  0  0  0  0  0  0  0
   -9.4512   -4.1164    8.7034 H   0  0  0  0  0  0  0  0  0  0  0  0
   -7.1242   -5.0371    8.9587 H   0  0  0  0  0  0  0  0  0  0  0  0
  1  2  2  0
  2  3  1  0
  3  4  1  0
  4  5  2  0
  5  6  1  0
  6  7  2  0
  7  8  1  0
  8  9  1  0
  9 10  2  0
 10 11  1  0
 11 12  2  0
  2 13  1  0
 13 14  1  0
 14 15  1  0
 15 16  1  0
 16 17  1  0
 17 18  1  0
 18 19  1  0
 19 20  2  0
 20 21  1  0
 21 22  2  0
 22 23  1  0
 23 24  2  0
 24 25  1  0
 25 26  2  0
 26 27  1  0
 12  4  1  0
 18 13  1  0
 27 19  1  0
 11  7  1  0
 26 21  1  0
  3 28  1  0
  5 29  1  0
  6 30  1  0
  8 31  1  0
  9 32  1  0
 10 33  1  0
 12 34  1  0
 14 35  1  0
 14 36  1  0
 15 37  1  0
 15 38  1  0
 17 39  1  0
 17 40  1  0
 18 41  1  0
 22 42  1  0
 23 43  1  0
 24 44  1  0
 25 45  1  0
M  END
>  <Energy>  (467) 
1094.8003998046661

>  <compound_id>  (467) 
20094

>  <target_id>  (467) 
1

>  <reference_id>  (467) 
40

>  <inspiration_ids>  (467) 
[69, 40]

>  <energy_score>  (467) 
1009.1272615791212

>  <distance_score>  (467) 
8.637911251241528

>  <path>  (467) 
/opt/xchem-fragalysis-2/maxwin/BulkDock/SCRATCH/511016/C20094-P40/C20094-P40.minimised.mol

>  <scratch_subdir>  (467) 
/opt/xchem-fragalysis-2/maxwin/BulkDock/SCRATCH/511016/C20094-P40

>  <fragmenstein_runtime>  (467) 
17.17307448387146

>  <fragmenstein_outcome>  (467) 
too moved

>  <fragmenstein_mode>  (467) 
expansion

>  <fragmenstein_error>  (467) 


$$$$
C20095-P69
     RDKit          3D

 47 51  0  0  0  0  0  0  0  0999 V2000
  -10.6903   -0.4101   16.9841 O   0  0  0  0  0  0  0  0  0  0  0  0
   -9.8947   -0.7214   17.8235 C   0  0  0  0  0  0  0  0  0  0  0  0
  -10.1087   -1.3078   19.1998 N   0  0  0  0  0  0  0  0  0  0  0  0
  -11.3149   -1.7563   19.8689 C   0  0  0  0  0  0  0  0  0  0  0  0
  -11.7839   -0.9465   20.9198 C   0  0  0  0  0  0  0  0  0  0  0  0
  -11.6630   -1.2887   22.3148 C   0  0  0  0  0  0  0  0  0  0  0  0
  -11.0025   -2.4847   22.6556 C   0  0  0  0  0  0  0  0  0  0  0  0
  -10.4916   -2.9604   23.8459 N   0  0  0  0  0  0  0  0  0  0  0  0
   -9.8525   -4.1610   23.6465 C   0  0  0  0  0  0  0  0  0  0  0  0
   -9.9989   -4.4933   22.3167 C   0  0  0  0  0  0  0  0  0  0  0  0
  -10.6937   -3.4198   21.6752 C   0  0  0  0  0  0  0  0  0  0  0  0
  -11.0426   -3.0951   20.3254 C   0  0  0  0  0  0  0  0  0  0  0  0
   -7.9692   -0.6358   17.4512 C   0  0  0  0  0  0  0  0  0  0  0  0
   -7.0627    0.8959   17.8230 C   0  0  0  0  0  0  0  0  0  0  0  0
   -5.5130    1.0665   16.8692 C   0  0  0  0  0  0  0  0  0  0  0  0
   -5.7025    0.1053   15.0629 C   0  0  0  0  0  0  0  0  0  0  0  0
   -6.1349   -1.1291   14.3846 N   0  0  0  0  0  0  0  0  0  0  0  0
   -6.3718   -0.6140   12.7085 C   0  0  0  0  0  0  0  0  0  0  0  0
   -7.3909   -0.4752   11.8603 N   0  0  0  0  0  0  0  0  0  0  0  0
   -7.2877   -0.2472   10.3919 C   0  0  0  0  0  0  0  0  0  0  0  0
   -8.3498   -0.0514    9.4790 C   0  0  0  0  0  0  0  0  0  0  0  0
   -8.0820   -0.0131    8.0986 C   0  0  0  0  0  0  0  0  0  0  0  0
   -6.7776   -0.1490    7.6043 C   0  0  0  0  0  0  0  0  0  0  0  0
   -5.6868   -0.3085    8.4619 C   0  0  0  0  0  0  0  0  0  0  0  0
   -6.0185   -0.3424    9.8199 C   0  0  0  0  0  0  0  0  0  0  0  0
   -4.7397   -0.3893   11.4700 S   0  0  0  0  0  0  0  0  0  0  0  0
   -7.3260   -1.6354   15.6828 C   0  0  0  0  0  0  0  0  0  0  0  0
   -9.2266   -1.3715   19.6749 H   0  0  0  0  0  0  0  0  0  0  0  0
  -12.1154    0.0635   20.6789 H   0  0  0  0  0  0  0  0  0  0  0  0
  -11.9374   -0.5626   23.0735 H   0  0  0  0  0  0  0  0  0  0  0  0
  -10.5520   -2.4710   24.7273 H   0  0  0  0  0  0  0  0  0  0  0  0
   -9.3723   -4.6767   24.4666 H   0  0  0  0  0  0  0  0  0  0  0  0
   -9.6063   -5.3803   21.8381 H   0  0  0  0  0  0  0  0  0  0  0  0
  -10.8097   -3.8473   19.5896 H   0  0  0  0  0  0  0  0  0  0  0  0
   -8.0564   -1.1208   18.3167 H   0  0  0  0  0  0  0  0  0  0  0  0
   -6.6934    1.0004   18.8388 H   0  0  0  0  0  0  0  0  0  0  0  0
   -7.7410    1.7470   17.7496 H   0  0  0  0  0  0  0  0  0  0  0  0
   -4.6296    0.5950   17.2828 H   0  0  0  0  0  0  0  0  0  0  0  0
   -5.3115    2.0932   17.1919 H   0  0  0  0  0  0  0  0  0  0  0  0
   -6.0430    0.5820   14.1440 H   0  0  0  0  0  0  0  0  0  0  0  0
   -6.7440    0.0616   15.3286 H   0  0  0  0  0  0  0  0  0  0  0  0
   -9.3689    0.0081    9.8475 H   0  0  0  0  0  0  0  0  0  0  0  0
   -8.9112    0.1007    7.4029 H   0  0  0  0  0  0  0  0  0  0  0  0
   -6.6127   -0.1322    6.5285 H   0  0  0  0  0  0  0  0  0  0  0  0
   -4.6657   -0.4006    8.1154 H   0  0  0  0  0  0  0  0  0  0  0  0
   -6.6091   -2.4038   15.9672 H   0  0  0  0  0  0  0  0  0  0  0  0
   -7.8275   -2.5556   15.3576 H   0  0  0  0  0  0  0  0  0  0  0  0
  1  2  2  0
  2  3  1  0
  3  4  1  0
  4  5  2  0
  5  6  1  0
  6  7  2  0
  7  8  1  0
  8  9  1  0
  9 10  2  0
 10 11  1  0
 11 12  2  0
  2 13  1  0
 13 14  1  0
 14 15  1  0
 15 16  1  0
 16 17  1  0
 17 18  1  0
 18 19  2  0
 19 20  1  0
 20 21  2  0
 21 22  1  0
 22 23  2  0
 23 24  1  0
 24 25  2  0
 25 26  1  0
 17 27  1  0
 12  4  1  0
 27 13  1  0
 11  7  1  0
 26 18  1  0
 25 20  1  0
  3 28  1  0
  5 29  1  0
  6 30  1  0
  8 31  1  0
  9 32  1  0
 10 33  1  0
 12 34  1  0
 13 35  1  0
 14 36  1  0
 14 37  1  0
 15 38  1  0
 15 39  1  0
 16 40  1  0
 16 41  1  0
 21 42  1  0
 22 43  1  0
 23 44  1  0
 24 45  1  0
 27 46  1  0
 27 47  1  0
M  END
>  <Energy>  (468) 
637.32105921201924

>  <compound_id>  (468) 
20095

>  <target_id>  (468) 
1

>  <reference_id>  (468) 
69

>  <inspiration_ids>  (468) 
[69, 40]

>  <energy_score>  (468) 
549.1974549935906

>  <distance_score>  (468) 
11.522225979053458

>  <path>  (468) 
/opt/xchem-fragalysis-2/maxwin/BulkDock/SCRATCH/511016/C20095-P69/C20095-P69.minimised.mol

>  <scratch_subdir>  (468) 
/opt/xchem-fragalysis-2/maxwin/BulkDock/SCRATCH/511016/C20095-P69

>  <fragmenstein_runtime>  (468) 
31.911990880966187

>  <fragmenstein_outcome>  (468) 
too moved

>  <fragmenstein_mode>  (468) 
expansion

>  <fragmenstein_error>  (468) 


$$$$
C20095-P40
     RDKit          3D

 47 51  0  0  0  0  0  0  0  0999 V2000
   -4.4856   -7.0973   22.0086 O   0  0  0  0  0  0  0  0  0  0  0  0
   -3.9212   -6.0679   21.9176 C   0  0  0  0  0  0  0  0  0  0  0  0
   -2.7346   -5.7675   23.6008 N   0  0  0  0  0  0  0  0  0  0  0  0
   -2.2628   -6.9397   25.2194 C   0  0  0  0  0  0  0  0  0  0  0  0
   -3.2194   -7.2179   26.7869 C   0  0  0  0  0  0  0  0  0  0  0  0
   -3.0753   -7.2916   28.6315 C   0  0  0  0  0  0  0  0  0  0  0  0
   -1.9418   -7.2189   29.4201 C   0  0  0  0  0  0  0  0  0  0  0  0
   -1.3698   -7.1941   30.6330 N   0  0  0  0  0  0  0  0  0  0  0  0
   -0.0124   -7.2743   30.4064 C   0  0  0  0  0  0  0  0  0  0  0  0
    0.1898   -7.5706   29.0666 C   0  0  0  0  0  0  0  0  0  0  0  0
   -1.1149   -7.6872   28.4924 C   0  0  0  0  0  0  0  0  0  0  0  0
   -2.0378   -7.6125   26.9221 C   0  0  0  0  0  0  0  0  0  0  0  0
   -4.0380   -4.8657   19.9978 C   0  0  0  0  0  0  0  0  0  0  0  0
   -4.9088   -3.8199   19.7203 C   0  0  0  0  0  0  0  0  0  0  0  0
   -3.8861   -2.4433   18.8322 C   0  0  0  0  0  0  0  0  0  0  0  0
   -2.4177   -2.0464   17.7401 C   0  0  0  0  0  0  0  0  0  0  0  0
   -2.8569   -3.2127   16.2835 N   0  0  0  0  0  0  0  0  0  0  0  0
   -1.8415   -2.5958   14.6102 C   0  0  0  0  0  0  0  0  0  0  0  0
   -2.4605   -1.6279   13.1837 N   0  0  0  0  0  0  0  0  0  0  0  0
   -3.5389   -0.1667   12.6517 C   0  0  0  0  0  0  0  0  0  0  0  0
   -5.3262   -0.1785   11.8494 C   0  0  0  0  0  0  0  0  0  0  0  0
   -6.3510   -0.1257   10.4906 C   0  0  0  0  0  0  0  0  0  0  0  0
   -5.6277   -0.2491    9.3247 C   0  0  0  0  0  0  0  0  0  0  0  0
   -4.2903   -0.3269    9.7721 C   0  0  0  0  0  0  0  0  0  0  0  0
   -3.8694   -0.5636   11.5194 C   0  0  0  0  0  0  0  0  0  0  0  0
   -1.8201   -1.5247   12.4046 S   0  0  0  0  0  0  0  0  0  0  0  0
   -4.0075   -4.4676   17.7371 C   0  0  0  0  0  0  0  0  0  0  0  0
   -2.3426   -4.8739   23.5466 H   0  0  0  0  0  0  0  0  0  0  0  0
   -4.2809   -7.6631   26.6538 H   0  0  0  0  0  0  0  0  0  0  0  0
   -4.0349   -7.6153   29.0188 H   0  0  0  0  0  0  0  0  0  0  0  0
   -1.8169   -7.0119   31.5264 H   0  0  0  0  0  0  0  0  0  0  0  0
    0.6604   -7.0665   31.2251 H   0  0  0  0  0  0  0  0  0  0  0  0
    1.1372   -7.5707   28.5526 H   0  0  0  0  0  0  0  0  0  0  0  0
   -0.9652   -8.0317   27.0221 H   0  0  0  0  0  0  0  0  0  0  0  0
   -4.1929   -4.2538   20.9257 H   0  0  0  0  0  0  0  0  0  0  0  0
   -5.7416   -3.6583   20.4516 H   0  0  0  0  0  0  0  0  0  0  0  0
   -5.5228   -4.3635   19.1078 H   0  0  0  0  0  0  0  0  0  0  0  0
   -3.4402   -2.2321   19.6490 H   0  0  0  0  0  0  0  0  0  0  0  0
   -4.3461   -1.4699   18.7992 H   0  0  0  0  0  0  0  0  0  0  0  0
   -2.8045   -1.0988   17.6996 H   0  0  0  0  0  0  0  0  0  0  0  0
   -1.3522   -2.1602   17.9137 H   0  0  0  0  0  0  0  0  0  0  0  0
   -6.1310   -0.2223   12.6691 H   0  0  0  0  0  0  0  0  0  0  0  0
   -7.4106    0.0302   10.5668 H   0  0  0  0  0  0  0  0  0  0  0  0
   -5.9805   -0.2282    8.3124 H   0  0  0  0  0  0  0  0  0  0  0  0
   -3.4636   -0.4333    9.0618 H   0  0  0  0  0  0  0  0  0  0  0  0
   -4.9725   -4.2329   17.3274 H   0  0  0  0  0  0  0  0  0  0  0  0
   -3.9292   -5.4802   17.3383 H   0  0  0  0  0  0  0  0  0  0  0  0
  1  2  2  0
  2  3  1  0
  3  4  1  0
  4  5  2  0
  5  6  1  0
  6  7  2  0
  7  8  1  0
  8  9  1  0
  9 10  2  0
 10 11  1  0
 11 12  2  0
  2 13  1  0
 13 14  1  0
 14 15  1  0
 15 16  1  0
 16 17  1  0
 17 18  1  0
 18 19  2  0
 19 20  1  0
 20 21  2  0
 21 22  1  0
 22 23  2  0
 23 24  1  0
 24 25  2  0
 25 26  1  0
 17 27  1  0
 12  4  1  0
 27 13  1  0
 11  7  1  0
 26 18  1  0
 25 20  1  0
  3 28  1  0
  5 29  1  0
  6 30  1  0
  8 31  1  0
  9 32  1  0
 10 33  1  0
 12 34  1  0
 13 35  1  0
 14 36  1  0
 14 37  1  0
 15 38  1  0
 15 39  1  0
 16 40  1  0
 16 41  1  0
 21 42  1  0
 22 43  1  0
 23 44  1  0
 24 45  1  0
 27 46  1  0
 27 47  1  0
M  END
>  <Energy>  (469) 
3267.0742553027694

>  <compound_id>  (469) 
20095

>  <target_id>  (469) 
1

>  <reference_id>  (469) 
40

>  <inspiration_ids>  (469) 
[69, 40]

>  <energy_score>  (469) 
3178.950651084365

>  <distance_score>  (469) 
6.143378084264584

>  <path>  (469) 
/opt/xchem-fragalysis-2/maxwin/BulkDock/SCRATCH/511016/C20095-P40/C20095-P40.minimised.mol

>  <scratch_subdir>  (469) 
/opt/xchem-fragalysis-2/maxwin/BulkDock/SCRATCH/511016/C20095-P40

>  <fragmenstein_runtime>  (469) 
24.319435358047485

>  <fragmenstein_outcome>  (469) 
too moved

>  <fragmenstein_mode>  (469) 
expansion

>  <fragmenstein_error>  (469) 


$$$$
C20093-P69
     RDKit          3D

 47 51  0  0  0  0  0  0  0  0999 V2000
   -3.5597   -3.0715   22.2830 O   0  0  0  0  0  0  0  0  0  0  0  0
   -3.7161   -4.2836   21.9941 C   0  0  0  0  0  0  0  0  0  0  0  0
   -2.9598   -5.6413   23.2303 N   0  0  0  0  0  0  0  0  0  0  0  0
   -1.7992   -5.5011   24.7292 C   0  0  0  0  0  0  0  0  0  0  0  0
   -1.6413   -5.5248   26.1244 C   0  0  0  0  0  0  0  0  0  0  0  0
   -0.6787   -4.4309   26.8496 C   0  0  0  0  0  0  0  0  0  0  0  0
    0.8240   -3.4780   26.3509 C   0  0  0  0  0  0  0  0  0  0  0  0
    1.7410   -2.4505   26.3569 N   0  0  0  0  0  0  0  0  0  0  0  0
    2.9695   -2.8416   25.9847 C   0  0  0  0  0  0  0  0  0  0  0  0
    2.8857   -4.1516   25.5782 C   0  0  0  0  0  0  0  0  0  0  0  0
    1.3857   -4.7697   25.2047 C   0  0  0  0  0  0  0  0  0  0  0  0
    0.0387   -5.9216   24.4661 C   0  0  0  0  0  0  0  0  0  0  0  0
   -4.4749   -4.4059   20.0320 C   0  0  0  0  0  0  0  0  0  0  0  0
   -3.4358   -2.8394   18.9993 C   0  0  0  0  0  0  0  0  0  0  0  0
   -2.0806   -2.3059   17.4833 C   0  0  0  0  0  0  0  0  0  0  0  0
   -2.1320   -2.8916   15.5115 N   0  0  0  0  0  0  0  0  0  0  0  0
   -2.1819   -2.3714   13.4865 C   0  0  0  0  0  0  0  0  0  0  0  0
   -3.0026   -0.9033   12.6953 N   0  0  0  0  0  0  0  0  0  0  0  0
   -4.2058   -0.4054   11.1479 C   0  0  0  0  0  0  0  0  0  0  0  0
   -5.0547   -0.5411    9.8032 C   0  0  0  0  0  0  0  0  0  0  0  0
   -5.1289   -0.0649    8.4829 C   0  0  0  0  0  0  0  0  0  0  0  0
   -4.0107   -0.4505    7.8181 C   0  0  0  0  0  0  0  0  0  0  0  0
   -2.8214   -0.5804    8.5362 C   0  0  0  0  0  0  0  0  0  0  0  0
   -2.7905   -0.2034    9.9310 C   0  0  0  0  0  0  0  0  0  0  0  0
   -1.4660   -0.5935   12.0104 S   0  0  0  0  0  0  0  0  0  0  0  0
   -3.7522   -4.0139   16.3326 C   0  0  0  0  0  0  0  0  0  0  0  0
   -4.2477   -5.0200   18.0789 C   0  0  0  0  0  0  0  0  0  0  0  0
   -3.2739   -6.6365   22.8947 H   0  0  0  0  0  0  0  0  0  0  0  0
   -2.1579   -6.1723   26.8196 H   0  0  0  0  0  0  0  0  0  0  0  0
   -1.2989   -3.9883   27.6027 H   0  0  0  0  0  0  0  0  0  0  0  0
    1.5031   -1.5302   26.6760 H   0  0  0  0  0  0  0  0  0  0  0  0
    3.8243   -2.1859   26.0788 H   0  0  0  0  0  0  0  0  0  0  0  0
    3.8466   -4.5968   25.3518 H   0  0  0  0  0  0  0  0  0  0  0  0
    0.4594   -6.2342   23.5265 H   0  0  0  0  0  0  0  0  0  0  0  0
   -5.2895   -3.8046   20.2850 H   0  0  0  0  0  0  0  0  0  0  0  0
   -3.9830   -3.3042   18.2527 H   0  0  0  0  0  0  0  0  0  0  0  0
   -3.8481   -1.8270   19.1486 H   0  0  0  0  0  0  0  0  0  0  0  0
   -1.0302   -2.4048   17.7644 H   0  0  0  0  0  0  0  0  0  0  0  0
   -2.3908   -1.3257   17.6845 H   0  0  0  0  0  0  0  0  0  0  0  0
   -4.8094   -1.5786    9.4976 H   0  0  0  0  0  0  0  0  0  0  0  0
   -6.0872   -0.0201    7.9714 H   0  0  0  0  0  0  0  0  0  0  0  0
   -4.0505   -0.7115    6.7636 H   0  0  0  0  0  0  0  0  0  0  0  0
   -1.9889   -1.0455    8.0526 H   0  0  0  0  0  0  0  0  0  0  0  0
   -4.7469   -3.5712   16.0858 H   0  0  0  0  0  0  0  0  0  0  0  0
   -4.1177   -4.8179   15.6482 H   0  0  0  0  0  0  0  0  0  0  0  0
   -3.7147   -5.9792   18.1692 H   0  0  0  0  0  0  0  0  0  0  0  0
   -5.1626   -5.4651   17.6592 H   0  0  0  0  0  0  0  0  0  0  0  0
  1  2  2  0
  2  3  1  0
  3  4  1  0
  4  5  2  0
  5  6  1  0
  6  7  2  0
  7  8  1  0
  8  9  1  0
  9 10  2  0
 10 11  1  0
 11 12  2  0
  2 13  1  0
 13 14  1  0
 14 15  1  0
 15 16  1  0
 16 17  1  0
 17 18  2  0
 18 19  1  0
 19 20  2  0
 20 21  1  0
 21 22  2  0
 22 23  1  0
 23 24  2  0
 24 25  1  0
 16 26  1  0
 26 27  1  0
 12  4  1  0
 27 13  1  0
 11  7  1  0
 25 17  1  0
 24 19  1  0
  3 28  1  0
  5 29  1  0
  6 30  1  0
  8 31  1  0
  9 32  1  0
 10 33  1  0
 12 34  1  0
 13 35  1  0
 14 36  1  0
 14 37  1  0
 15 38  1  0
 15 39  1  0
 20 40  1  0
 21 41  1  0
 22 42  1  0
 23 43  1  0
 26 44  1  0
 26 45  1  0
 27 46  1  0
 27 47  1  0
M  END
>  <Energy>  (470) 
2592.9298223753131

>  <compound_id>  (470) 
20093

>  <target_id>  (470) 
1

>  <reference_id>  (470) 
69

>  <inspiration_ids>  (470) 
[69, 40]

>  <energy_score>  (470) 
2514.8900789858944

>  <distance_score>  (470) 
6.039765667768023

>  <path>  (470) 
/opt/xchem-fragalysis-2/maxwin/BulkDock/SCRATCH/511016/C20093-P69/C20093-P69.minimised.mol

>  <scratch_subdir>  (470) 
/opt/xchem-fragalysis-2/maxwin/BulkDock/SCRATCH/511016/C20093-P69

>  <fragmenstein_runtime>  (470) 
33.37002372741699

>  <fragmenstein_outcome>  (470) 
too moved

>  <fragmenstein_mode>  (470) 
expansion

>  <fragmenstein_error>  (470) 


$$$$
C20093-P40
     RDKit          3D

 47 51  0  0  0  0  0  0  0  0999 V2000
   -2.5535   -5.9306   23.9467 O   0  0  0  0  0  0  0  0  0  0  0  0
   -2.1555   -4.9480   23.5219 C   0  0  0  0  0  0  0  0  0  0  0  0
   -0.2666   -4.6486   23.7915 N   0  0  0  0  0  0  0  0  0  0  0  0
    1.0824   -5.6235   24.7603 C   0  0  0  0  0  0  0  0  0  0  0  0
    2.1080   -6.7203   24.5213 C   0  0  0  0  0  0  0  0  0  0  0  0
    3.2895   -7.1875   25.2505 C   0  0  0  0  0  0  0  0  0  0  0  0
    3.5940   -6.6393   26.4800 C   0  0  0  0  0  0  0  0  0  0  0  0
    4.6442   -6.8449   27.3377 N   0  0  0  0  0  0  0  0  0  0  0  0
    4.4242   -6.1632   28.5071 C   0  0  0  0  0  0  0  0  0  0  0  0
    3.2290   -5.4922   28.3870 C   0  0  0  0  0  0  0  0  0  0  0  0
    2.7277   -5.7655   27.0898 C   0  0  0  0  0  0  0  0  0  0  0  0
    1.5929   -5.3576   26.3374 C   0  0  0  0  0  0  0  0  0  0  0  0
   -3.6921   -3.7862   22.3266 C   0  0  0  0  0  0  0  0  0  0  0  0
   -3.3636   -2.2763   21.5557 C   0  0  0  0  0  0  0  0  0  0  0  0
   -3.6866   -1.9414   19.4550 C   0  0  0  0  0  0  0  0  0  0  0  0
   -2.8535   -2.2210   18.4403 N   0  0  0  0  0  0  0  0  0  0  0  0
   -1.1836   -1.7500   17.8171 C   0  0  0  0  0  0  0  0  0  0  0  0
   -0.1909   -1.6041   16.6144 N   0  0  0  0  0  0  0  0  0  0  0  0
    0.5391   -0.1868   16.2888 C   0  0  0  0  0  0  0  0  0  0  0  0
    1.1488    0.5388   15.1534 C   0  0  0  0  0  0  0  0  0  0  0  0
    1.2915    1.9305   15.0958 C   0  0  0  0  0  0  0  0  0  0  0  0
    0.9904    2.6612   16.2149 C   0  0  0  0  0  0  0  0  0  0  0  0
    0.6609    1.9913   17.3911 C   0  0  0  0  0  0  0  0  0  0  0  0
    0.4472    0.6009   17.3630 C   0  0  0  0  0  0  0  0  0  0  0  0
    0.6830   -0.7785   18.3251 S   0  0  0  0  0  0  0  0  0  0  0  0
   -4.0108   -3.7901   19.0176 C   0  0  0  0  0  0  0  0  0  0  0  0
   -4.6287   -4.2376   20.8233 C   0  0  0  0  0  0  0  0  0  0  0  0
   -0.0345   -3.7233   23.4569 H   0  0  0  0  0  0  0  0  0  0  0  0
    1.8627   -7.5555   23.8538 H   0  0  0  0  0  0  0  0  0  0  0  0
    3.8768   -8.0024   24.8269 H   0  0  0  0  0  0  0  0  0  0  0  0
    5.4547   -7.4170   27.1345 H   0  0  0  0  0  0  0  0  0  0  0  0
    5.1515   -6.1986   29.3077 H   0  0  0  0  0  0  0  0  0  0  0  0
    2.7921   -4.8403   29.1329 H   0  0  0  0  0  0  0  0  0  0  0  0
    0.9822   -4.7116   26.9982 H   0  0  0  0  0  0  0  0  0  0  0  0
   -4.0827   -3.2637   23.1975 H   0  0  0  0  0  0  0  0  0  0  0  0
   -2.3718   -2.0130   22.0063 H   0  0  0  0  0  0  0  0  0  0  0  0
   -3.7131   -1.2887   21.8627 H   0  0  0  0  0  0  0  0  0  0  0  0
   -3.8385   -0.9292   19.3587 H   0  0  0  0  0  0  0  0  0  0  0  0
   -4.5598   -1.9223   18.9485 H   0  0  0  0  0  0  0  0  0  0  0  0
    1.2310    0.0415   14.1767 H   0  0  0  0  0  0  0  0  0  0  0  0
    1.6155    2.4139   14.1800 H   0  0  0  0  0  0  0  0  0  0  0  0
    1.1315    3.7381   16.2253 H   0  0  0  0  0  0  0  0  0  0  0  0
    0.6977    2.5503   18.3182 H   0  0  0  0  0  0  0  0  0  0  0  0
   -4.6118   -4.1250   18.1403 H   0  0  0  0  0  0  0  0  0  0  0  0
   -3.5986   -4.7877   19.0432 H   0  0  0  0  0  0  0  0  0  0  0  0
   -4.7068   -5.2909   20.9583 H   0  0  0  0  0  0  0  0  0  0  0  0
   -5.6780   -3.9269   20.9050 H   0  0  0  0  0  0  0  0  0  0  0  0
  1  2  2  0
  2  3  1  0
  3  4  1  0
  4  5  2  0
  5  6  1  0
  6  7  2  0
  7  8  1  0
  8  9  1  0
  9 10  2  0
 10 11  1  0
 11 12  2  0
  2 13  1  0
 13 14  1  0
 14 15  1  0
 15 16  1  0
 16 17  1  0
 17 18  2  0
 18 19  1  0
 19 20  2  0
 20 21  1  0
 21 22  2  0
 22 23  1  0
 23 24  2  0
 24 25  1  0
 16 26  1  0
 26 27  1  0
 12  4  1  0
 27 13  1  0
 11  7  1  0
 25 17  1  0
 24 19  1  0
  3 28  1  0
  5 29  1  0
  6 30  1  0
  8 31  1  0
  9 32  1  0
 10 33  1  0
 12 34  1  0
 13 35  1  0
 14 36  1  0
 14 37  1  0
 15 38  1  0
 15 39  1  0
 20 40  1  0
 21 41  1  0
 22 42  1  0
 23 43  1  0
 26 44  1  0
 26 45  1  0
 27 46  1  0
 27 47  1  0
M  END
>  <Energy>  (471) 
1252.5532822101704

>  <compound_id>  (471) 
20093

>  <target_id>  (471) 
1

>  <reference_id>  (471) 
40

>  <inspiration_ids>  (471) 
[69, 40]

>  <energy_score>  (471) 
1174.5135388207523

>  <distance_score>  (471) 
9.575024011425173

>  <path>  (471) 
/opt/xchem-fragalysis-2/maxwin/BulkDock/SCRATCH/511016/C20093-P40/C20093-P40.minimised.mol

>  <scratch_subdir>  (471) 
/opt/xchem-fragalysis-2/maxwin/BulkDock/SCRATCH/511016/C20093-P40

>  <fragmenstein_runtime>  (471) 
23.066919565200806

>  <fragmenstein_outcome>  (471) 
too moved

>  <fragmenstein_mode>  (471) 
expansion

>  <fragmenstein_error>  (471) 


$$$$
C20095-P69
     RDKit          3D

 47 51  0  0  0  0  0  0  0  0999 V2000
  -10.6903   -0.4101   16.9841 O   0  0  0  0  0  0  0  0  0  0  0  0
   -9.8947   -0.7214   17.8235 C   0  0  0  0  0  0  0  0  0  0  0  0
  -10.1087   -1.3078   19.1998 N   0  0  0  0  0  0  0  0  0  0  0  0
  -11.3149   -1.7563   19.8689 C   0  0  0  0  0  0  0  0  0  0  0  0
  -11.7839   -0.9465   20.9198 C   0  0  0  0  0  0  0  0  0  0  0  0
  -11.6630   -1.2887   22.3148 C   0  0  0  0  0  0  0  0  0  0  0  0
  -11.0025   -2.4847   22.6556 C   0  0  0  0  0  0  0  0  0  0  0  0
  -10.4916   -2.9604   23.8459 N   0  0  0  0  0  0  0  0  0  0  0  0
   -9.8525   -4.1610   23.6465 C   0  0  0  0  0  0  0  0  0  0  0  0
   -9.9989   -4.4933   22.3167 C   0  0  0  0  0  0  0  0  0  0  0  0
  -10.6937   -3.4198   21.6752 C   0  0  0  0  0  0  0  0  0  0  0  0
  -11.0426   -3.0951   20.3254 C   0  0  0  0  0  0  0  0  0  0  0  0
   -7.9692   -0.6358   17.4512 C   0  0  0  0  0  0  0  0  0  0  0  0
   -7.0627    0.8959   17.8230 C   0  0  0  0  0  0  0  0  0  0  0  0
   -5.5130    1.0665   16.8692 C   0  0  0  0  0  0  0  0  0  0  0  0
   -5.7025    0.1053   15.0629 C   0  0  0  0  0  0  0  0  0  0  0  0
   -6.1349   -1.1291   14.3846 N   0  0  0  0  0  0  0  0  0  0  0  0
   -6.3718   -0.6140   12.7085 C   0  0  0  0  0  0  0  0  0  0  0  0
   -7.3909   -0.4752   11.8603 N   0  0  0  0  0  0  0  0  0  0  0  0
   -7.2877   -0.2472   10.3919 C   0  0  0  0  0  0  0  0  0  0  0  0
   -8.3498   -0.0514    9.4790 C   0  0  0  0  0  0  0  0  0  0  0  0
   -8.0820   -0.0131    8.0986 C   0  0  0  0  0  0  0  0  0  0  0  0
   -6.7776   -0.1490    7.6043 C   0  0  0  0  0  0  0  0  0  0  0  0
   -5.6868   -0.3085    8.4619 C   0  0  0  0  0  0  0  0  0  0  0  0
   -6.0185   -0.3424    9.8199 C   0  0  0  0  0  0  0  0  0  0  0  0
   -4.7397   -0.3893   11.4700 S   0  0  0  0  0  0  0  0  0  0  0  0
   -7.3260   -1.6354   15.6828 C   0  0  0  0  0  0  0  0  0  0  0  0
   -9.2266   -1.3715   19.6749 H   0  0  0  0  0  0  0  0  0  0  0  0
  -12.1154    0.0635   20.6789 H   0  0  0  0  0  0  0  0  0  0  0  0
  -11.9374   -0.5626   23.0735 H   0  0  0  0  0  0  0  0  0  0  0  0
  -10.5520   -2.4710   24.7273 H   0  0  0  0  0  0  0  0  0  0  0  0
   -9.3723   -4.6767   24.4666 H   0  0  0  0  0  0  0  0  0  0  0  0
   -9.6063   -5.3803   21.8381 H   0  0  0  0  0  0  0  0  0  0  0  0
  -10.8097   -3.8473   19.5896 H   0  0  0  0  0  0  0  0  0  0  0  0
   -8.0564   -1.1208   18.3167 H   0  0  0  0  0  0  0  0  0  0  0  0
   -6.6934    1.0004   18.8388 H   0  0  0  0  0  0  0  0  0  0  0  0
   -7.7410    1.7470   17.7496 H   0  0  0  0  0  0  0  0  0  0  0  0
   -4.6296    0.5950   17.2828 H   0  0  0  0  0  0  0  0  0  0  0  0
   -5.3115    2.0932   17.1919 H   0  0  0  0  0  0  0  0  0  0  0  0
   -6.0430    0.5820   14.1440 H   0  0  0  0  0  0  0  0  0  0  0  0
   -6.7440    0.0616   15.3286 H   0  0  0  0  0  0  0  0  0  0  0  0
   -9.3689    0.0081    9.8475 H   0  0  0  0  0  0  0  0  0  0  0  0
   -8.9112    0.1007    7.4029 H   0  0  0  0  0  0  0  0  0  0  0  0
   -6.6127   -0.1322    6.5285 H   0  0  0  0  0  0  0  0  0  0  0  0
   -4.6657   -0.4006    8.1154 H   0  0  0  0  0  0  0  0  0  0  0  0
   -6.6091   -2.4038   15.9672 H   0  0  0  0  0  0  0  0  0  0  0  0
   -7.8275   -2.5556   15.3576 H   0  0  0  0  0  0  0  0  0  0  0  0
  1  2  2  0
  2  3  1  0
  3  4  1  0
  4  5  2  0
  5  6  1  0
  6  7  2  0
  7  8  1  0
  8  9  1  0
  9 10  2  0
 10 11  1  0
 11 12  2  0
  2 13  1  0
 13 14  1  0
 14 15  1  0
 15 16  1  0
 16 17  1  0
 17 18  1  0
 18 19  2  0
 19 20  1  0
 20 21  2  0
 21 22  1  0
 22 23  2  0
 23 24  1  0
 24 25  2  0
 25 26  1  0
 17 27  1  0
 12  4  1  0
 27 13  1  0
 11  7  1  0
 26 18  1  0
 25 20  1  0
  3 28  1  0
  5 29  1  0
  6 30  1  0
  8 31  1  0
  9 32  1  0
 10 33  1  0
 12 34  1  0
 13 35  1  0
 14 36  1  0
 14 37  1  0
 15 38  1  0
 15 39  1  0
 16 40  1  0
 16 41  1  0
 21 42  1  0
 22 43  1  0
 23 44  1  0
 24 45  1  0
 27 46  1  0
 27 47  1  0
M  END
>  <Energy>  (472) 
637.32105921201924

>  <compound_id>  (472) 
20095

>  <target_id>  (472) 
1

>  <reference_id>  (472) 
69

>  <inspiration_ids>  (472) 
[69, 40]

>  <energy_score>  (472) 
549.1974549935906

>  <distance_score>  (472) 
11.522225979053458

>  <path>  (472) 
/opt/xchem-fragalysis-2/maxwin/BulkDock/SCRATCH/511016/C20095-P69/C20095-P69.minimised.mol

>  <scratch_subdir>  (472) 
/opt/xchem-fragalysis-2/maxwin/BulkDock/SCRATCH/511016/C20095-P69

>  <fragmenstein_runtime>  (472) 
32.25561881065369

>  <fragmenstein_outcome>  (472) 
too moved

>  <fragmenstein_mode>  (472) 
expansion

>  <fragmenstein_error>  (472) 


$$$$
C20095-P40
     RDKit          3D

 47 51  0  0  0  0  0  0  0  0999 V2000
   -4.4856   -7.0973   22.0086 O   0  0  0  0  0  0  0  0  0  0  0  0
   -3.9212   -6.0679   21.9176 C   0  0  0  0  0  0  0  0  0  0  0  0
   -2.7346   -5.7675   23.6008 N   0  0  0  0  0  0  0  0  0  0  0  0
   -2.2628   -6.9397   25.2194 C   0  0  0  0  0  0  0  0  0  0  0  0
   -3.2194   -7.2179   26.7869 C   0  0  0  0  0  0  0  0  0  0  0  0
   -3.0753   -7.2916   28.6315 C   0  0  0  0  0  0  0  0  0  0  0  0
   -1.9418   -7.2189   29.4201 C   0  0  0  0  0  0  0  0  0  0  0  0
   -1.3698   -7.1941   30.6330 N   0  0  0  0  0  0  0  0  0  0  0  0
   -0.0124   -7.2743   30.4064 C   0  0  0  0  0  0  0  0  0  0  0  0
    0.1898   -7.5706   29.0666 C   0  0  0  0  0  0  0  0  0  0  0  0
   -1.1149   -7.6872   28.4924 C   0  0  0  0  0  0  0  0  0  0  0  0
   -2.0378   -7.6125   26.9221 C   0  0  0  0  0  0  0  0  0  0  0  0
   -4.0380   -4.8657   19.9978 C   0  0  0  0  0  0  0  0  0  0  0  0
   -4.9088   -3.8199   19.7203 C   0  0  0  0  0  0  0  0  0  0  0  0
   -3.8861   -2.4433   18.8322 C   0  0  0  0  0  0  0  0  0  0  0  0
   -2.4177   -2.0464   17.7401 C   0  0  0  0  0  0  0  0  0  0  0  0
   -2.8569   -3.2127   16.2835 N   0  0  0  0  0  0  0  0  0  0  0  0
   -1.8415   -2.5958   14.6102 C   0  0  0  0  0  0  0  0  0  0  0  0
   -2.4605   -1.6279   13.1837 N   0  0  0  0  0  0  0  0  0  0  0  0
   -3.5389   -0.1667   12.6517 C   0  0  0  0  0  0  0  0  0  0  0  0
   -5.3262   -0.1785   11.8494 C   0  0  0  0  0  0  0  0  0  0  0  0
   -6.3510   -0.1257   10.4906 C   0  0  0  0  0  0  0  0  0  0  0  0
   -5.6277   -0.2491    9.3247 C   0  0  0  0  0  0  0  0  0  0  0  0
   -4.2903   -0.3269    9.7721 C   0  0  0  0  0  0  0  0  0  0  0  0
   -3.8694   -0.5636   11.5194 C   0  0  0  0  0  0  0  0  0  0  0  0
   -1.8201   -1.5247   12.4046 S   0  0  0  0  0  0  0  0  0  0  0  0
   -4.0075   -4.4676   17.7371 C   0  0  0  0  0  0  0  0  0  0  0  0
   -2.3426   -4.8739   23.5466 H   0  0  0  0  0  0  0  0  0  0  0  0
   -4.2809   -7.6631   26.6538 H   0  0  0  0  0  0  0  0  0  0  0  0
   -4.0349   -7.6153   29.0188 H   0  0  0  0  0  0  0  0  0  0  0  0
   -1.8169   -7.0119   31.5264 H   0  0  0  0  0  0  0  0  0  0  0  0
    0.6604   -7.0665   31.2251 H   0  0  0  0  0  0  0  0  0  0  0  0
    1.1372   -7.5707   28.5526 H   0  0  0  0  0  0  0  0  0  0  0  0
   -0.9652   -8.0317   27.0221 H   0  0  0  0  0  0  0  0  0  0  0  0
   -4.1929   -4.2538   20.9257 H   0  0  0  0  0  0  0  0  0  0  0  0
   -5.7416   -3.6583   20.4516 H   0  0  0  0  0  0  0  0  0  0  0  0
   -5.5228   -4.3635   19.1078 H   0  0  0  0  0  0  0  0  0  0  0  0
   -3.4402   -2.2321   19.6490 H   0  0  0  0  0  0  0  0  0  0  0  0
   -4.3461   -1.4699   18.7992 H   0  0  0  0  0  0  0  0  0  0  0  0
   -2.8045   -1.0988   17.6996 H   0  0  0  0  0  0  0  0  0  0  0  0
   -1.3522   -2.1602   17.9137 H   0  0  0  0  0  0  0  0  0  0  0  0
   -6.1310   -0.2223   12.6691 H   0  0  0  0  0  0  0  0  0  0  0  0
   -7.4106    0.0302   10.5668 H   0  0  0  0  0  0  0  0  0  0  0  0
   -5.9805   -0.2282    8.3124 H   0  0  0  0  0  0  0  0  0  0  0  0
   -3.4636   -0.4333    9.0618 H   0  0  0  0  0  0  0  0  0  0  0  0
   -4.9725   -4.2329   17.3274 H   0  0  0  0  0  0  0  0  0  0  0  0
   -3.9292   -5.4802   17.3383 H   0  0  0  0  0  0  0  0  0  0  0  0
  1  2  2  0
  2  3  1  0
  3  4  1  0
  4  5  2  0
  5  6  1  0
  6  7  2  0
  7  8  1  0
  8  9  1  0
  9 10  2  0
 10 11  1  0
 11 12  2  0
  2 13  1  0
 13 14  1  0
 14 15  1  0
 15 16  1  0
 16 17  1  0
 17 18  1  0
 18 19  2  0
 19 20  1  0
 20 21  2  0
 21 22  1  0
 22 23  2  0
 23 24  1  0
 24 25  2  0
 25 26  1  0
 17 27  1  0
 12  4  1  0
 27 13  1  0
 11  7  1  0
 26 18  1  0
 25 20  1  0
  3 28  1  0
  5 29  1  0
  6 30  1  0
  8 31  1  0
  9 32  1  0
 10 33  1  0
 12 34  1  0
 13 35  1  0
 14 36  1  0
 14 37  1  0
 15 38  1  0
 15 39  1  0
 16 40  1  0
 16 41  1  0
 21 42  1  0
 22 43  1  0
 23 44  1  0
 24 45  1  0
 27 46  1  0
 27 47  1  0
M  END
>  <Energy>  (473) 
3267.0742553027694

>  <compound_id>  (473) 
20095

>  <target_id>  (473) 
1

>  <reference_id>  (473) 
40

>  <inspiration_ids>  (473) 
[69, 40]

>  <energy_score>  (473) 
3178.950651084365

>  <distance_score>  (473) 
6.143378084264584

>  <path>  (473) 
/opt/xchem-fragalysis-2/maxwin/BulkDock/SCRATCH/511016/C20095-P40/C20095-P40.minimised.mol

>  <scratch_subdir>  (473) 
/opt/xchem-fragalysis-2/maxwin/BulkDock/SCRATCH/511016/C20095-P40

>  <fragmenstein_runtime>  (473) 
22.752437591552734

>  <fragmenstein_outcome>  (473) 
too moved

>  <fragmenstein_mode>  (473) 
expansion

>  <fragmenstein_error>  (473) 


$$$$
C20096-P69
     RDKit          3D

 40 43  0  0  0  0  0  0  0  0999 V2000
   -2.6695   -3.3550   16.3116 C   0  0  0  0  0  0  0  0  0  0  0  0
   -4.3635   -4.3123   17.1747 C   0  0  0  0  0  0  0  0  0  0  0  0
   -4.0536   -5.0262   18.9837 N   0  0  0  0  0  0  0  0  0  0  0  0
   -4.7190   -4.5338   20.6360 C   0  0  0  0  0  0  0  0  0  0  0  0
   -5.5178   -3.7677   20.9124 O   0  0  0  0  0  0  0  0  0  0  0  0
   -3.8803   -5.2852   21.4510 N   0  0  0  0  0  0  0  0  0  0  0  0
   -3.6226   -5.2642   23.1888 C   0  0  0  0  0  0  0  0  0  0  0  0
   -3.1211   -4.5212   24.2429 C   0  0  0  0  0  0  0  0  0  0  0  0
   -2.0276   -5.1204   25.6377 C   0  0  0  0  0  0  0  0  0  0  0  0
   -1.3030   -6.2637   25.6362 C   0  0  0  0  0  0  0  0  0  0  0  0
   -0.1528   -6.5326   26.2300 N   0  0  0  0  0  0  0  0  0  0  0  0
    0.8389   -6.1400   25.2908 C   0  0  0  0  0  0  0  0  0  0  0  0
    0.2855   -6.1289   24.0549 C   0  0  0  0  0  0  0  0  0  0  0  0
   -1.0739   -6.4190   24.3457 C   0  0  0  0  0  0  0  0  0  0  0  0
   -2.2271   -6.0036   23.6181 C   0  0  0  0  0  0  0  0  0  0  0  0
   -5.6607   -4.5701   15.9216 C   0  0  0  0  0  0  0  0  0  0  0  0
   -7.0949   -4.5760   15.7255 N   0  0  0  0  0  0  0  0  0  0  0  0
   -7.4648   -3.3128   14.9230 C   0  0  0  0  0  0  0  0  0  0  0  0
   -8.3966   -2.8728   13.9819 C   0  0  0  0  0  0  0  0  0  0  0  0
   -8.0002   -1.4719   12.8858 C   0  0  0  0  0  0  0  0  0  0  0  0
   -6.7793   -0.6999   12.9411 C   0  0  0  0  0  0  0  0  0  0  0  0
   -6.2135   -1.1118   14.2212 C   0  0  0  0  0  0  0  0  0  0  0  0
   -6.4179   -2.4144   14.9260 C   0  0  0  0  0  0  0  0  0  0  0  0
   -5.5652   -3.8305   14.5129 S   0  0  0  0  0  0  0  0  0  0  0  0
   -1.8538   -3.9877   16.4086 H   0  0  0  0  0  0  0  0  0  0  0  0
   -2.2520   -2.5412   17.0496 H   0  0  0  0  0  0  0  0  0  0  0  0
   -2.0125   -3.0083   15.4667 H   0  0  0  0  0  0  0  0  0  0  0  0
   -4.1107   -5.3343   16.9139 H   0  0  0  0  0  0  0  0  0  0  0  0
   -3.4120   -5.7904   19.0578 H   0  0  0  0  0  0  0  0  0  0  0  0
   -3.2527   -5.7913   20.8790 H   0  0  0  0  0  0  0  0  0  0  0  0
   -3.5611   -3.4984   24.2715 H   0  0  0  0  0  0  0  0  0  0  0  0
   -1.8046   -4.5864   26.5739 H   0  0  0  0  0  0  0  0  0  0  0  0
   -0.2137   -6.2848   27.1925 H   0  0  0  0  0  0  0  0  0  0  0  0
    1.7763   -5.6507   25.4522 H   0  0  0  0  0  0  0  0  0  0  0  0
    0.6839   -5.6039   23.1997 H   0  0  0  0  0  0  0  0  0  0  0  0
   -2.3380   -7.0750   23.1634 H   0  0  0  0  0  0  0  0  0  0  0  0
   -9.3466   -3.4007   13.8619 H   0  0  0  0  0  0  0  0  0  0  0  0
   -8.6692   -1.2131   12.0779 H   0  0  0  0  0  0  0  0  0  0  0  0
   -6.6476    0.2194   12.4312 H   0  0  0  0  0  0  0  0  0  0  0  0
   -5.8410   -0.2651   14.7834 H   0  0  0  0  0  0  0  0  0  0  0  0
  1  2  1  0
  2  3  1  0
  3  4  1  0
  4  5  2  0
  4  6  1  0
  6  7  1  0
  7  8  2  0
  8  9  1  0
  9 10  2  0
 10 11  1  0
 11 12  1  0
 12 13  2  0
 13 14  1  0
 14 15  2  0
  2 16  1  0
 16 17  2  0
 17 18  1  0
 18 19  2  0
 19 20  1  0
 20 21  2  0
 21 22  1  0
 22 23  2  0
 23 24  1  0
 15  7  1  0
 24 16  1  0
 14 10  1  0
 23 18  1  0
  1 25  1  0
  1 26  1  0
  1 27  1  0
  2 28  1  0
  3 29  1  0
  6 30  1  0
  8 31  1  0
  9 32  1  0
 11 33  1  0
 12 34  1  0
 13 35  1  0
 15 36  1  0
 19 37  1  0
 20 38  1  0
 21 39  1  0
 22 40  1  0
M  END
>  <Energy>  (474) 
838.22595536111373

>  <compound_id>  (474) 
20096

>  <target_id>  (474) 
1

>  <reference_id>  (474) 
69

>  <inspiration_ids>  (474) 
[69, 40]

>  <energy_score>  (474) 
785.3633403986106

>  <distance_score>  (474) 
7.685869547697477

>  <path>  (474) 
/opt/xchem-fragalysis-2/maxwin/BulkDock/SCRATCH/511016/C20096-P69/C20096-P69.minimised.mol

>  <scratch_subdir>  (474) 
/opt/xchem-fragalysis-2/maxwin/BulkDock/SCRATCH/511016/C20096-P69

>  <fragmenstein_runtime>  (474) 
23.73781681060791

>  <fragmenstein_outcome>  (474) 
too moved

>  <fragmenstein_mode>  (474) 
expansion

>  <fragmenstein_error>  (474) 


$$$$
C20096-P40
     RDKit          3D

 40 43  0  0  0  0  0  0  0  0999 V2000
   -4.2902   -5.8132   17.2855 C   0  0  0  0  0  0  0  0  0  0  0  0
   -4.5450   -4.3814   17.4861 C   0  0  0  0  0  0  0  0  0  0  0  0
   -5.4196   -4.7183   19.3652 N   0  0  0  0  0  0  0  0  0  0  0  0
   -5.0091   -4.2386   20.9936 C   0  0  0  0  0  0  0  0  0  0  0  0
   -4.1815   -3.5482   21.3940 O   0  0  0  0  0  0  0  0  0  0  0  0
   -6.1218   -4.9056   21.7353 N   0  0  0  0  0  0  0  0  0  0  0  0
   -6.5172   -4.8033   23.0759 C   0  0  0  0  0  0  0  0  0  0  0  0
   -7.2286   -5.8104   23.7169 C   0  0  0  0  0  0  0  0  0  0  0  0
   -7.5545   -5.7134   25.0841 C   0  0  0  0  0  0  0  0  0  0  0  0
   -7.1675   -4.5596   25.7804 C   0  0  0  0  0  0  0  0  0  0  0  0
   -7.2593   -4.2397   27.1165 N   0  0  0  0  0  0  0  0  0  0  0  0
   -6.6549   -3.0339   27.3570 C   0  0  0  0  0  0  0  0  0  0  0  0
   -6.2042   -2.5391   26.1552 C   0  0  0  0  0  0  0  0  0  0  0  0
   -6.5175   -3.4982   25.1522 C   0  0  0  0  0  0  0  0  0  0  0  0
   -6.1866   -3.6311   23.7843 C   0  0  0  0  0  0  0  0  0  0  0  0
   -4.9382   -4.5692   15.3983 C   0  0  0  0  0  0  0  0  0  0  0  0
   -4.4662   -4.6551   13.8500 N   0  0  0  0  0  0  0  0  0  0  0  0
   -4.6029   -5.5772   12.1443 C   0  0  0  0  0  0  0  0  0  0  0  0
   -4.9508   -7.3746   11.9119 C   0  0  0  0  0  0  0  0  0  0  0  0
   -5.5541   -8.3273   11.0919 C   0  0  0  0  0  0  0  0  0  0  0  0
   -6.0820   -7.6367   10.1515 C   0  0  0  0  0  0  0  0  0  0  0  0
   -5.8074   -6.2249   10.4005 C   0  0  0  0  0  0  0  0  0  0  0  0
   -5.8646   -5.1797   11.8415 C   0  0  0  0  0  0  0  0  0  0  0  0
   -6.5537   -4.3380   13.9384 S   0  0  0  0  0  0  0  0  0  0  0  0
   -3.8235   -6.7167   16.9147 H   0  0  0  0  0  0  0  0  0  0  0  0
   -3.5355   -5.8891   18.0518 H   0  0  0  0  0  0  0  0  0  0  0  0
   -5.3325   -6.2615   17.2654 H   0  0  0  0  0  0  0  0  0  0  0  0
   -5.3259   -3.7955   17.2099 H   0  0  0  0  0  0  0  0  0  0  0  0
   -6.1276   -5.3892   19.3995 H   0  0  0  0  0  0  0  0  0  0  0  0
   -6.6159   -5.4992   21.1167 H   0  0  0  0  0  0  0  0  0  0  0  0
   -7.5062   -6.7143   23.1803 H   0  0  0  0  0  0  0  0  0  0  0  0
   -8.0670   -6.5297   25.5853 H   0  0  0  0  0  0  0  0  0  0  0  0
   -7.6814   -4.8301   27.8203 H   0  0  0  0  0  0  0  0  0  0  0  0
   -6.5951   -2.6317   28.3591 H   0  0  0  0  0  0  0  0  0  0  0  0
   -5.6549   -1.6163   26.0174 H   0  0  0  0  0  0  0  0  0  0  0  0
   -5.6287   -2.8303   23.3059 H   0  0  0  0  0  0  0  0  0  0  0  0
   -4.7878   -8.0669   12.7512 H   0  0  0  0  0  0  0  0  0  0  0  0
   -5.6138   -9.3892   11.2484 H   0  0  0  0  0  0  0  0  0  0  0  0
   -6.6037   -8.0507    9.3023 H   0  0  0  0  0  0  0  0  0  0  0  0
   -4.6964   -6.0465   10.1412 H   0  0  0  0  0  0  0  0  0  0  0  0
  1  2  1  0
  2  3  1  0
  3  4  1  0
  4  5  2  0
  4  6  1  0
  6  7  1  0
  7  8  2  0
  8  9  1  0
  9 10  2  0
 10 11  1  0
 11 12  1  0
 12 13  2  0
 13 14  1  0
 14 15  2  0
  2 16  1  0
 16 17  2  0
 17 18  1  0
 18 19  2  0
 19 20  1  0
 20 21  2  0
 21 22  1  0
 22 23  2  0
 23 24  1  0
 15  7  1  0
 24 16  1  0
 14 10  1  0
 23 18  1  0
  1 25  1  0
  1 26  1  0
  1 27  1  0
  2 28  1  0
  3 29  1  0
  6 30  1  0
  8 31  1  0
  9 32  1  0
 11 33  1  0
 12 34  1  0
 13 35  1  0
 15 36  1  0
 19 37  1  0
 20 38  1  0
 21 39  1  0
 22 40  1  0
M  END
>  <Energy>  (475) 
1023.0502132568698

>  <compound_id>  (475) 
20096

>  <target_id>  (475) 
1

>  <reference_id>  (475) 
40

>  <inspiration_ids>  (475) 
[69, 40]

>  <energy_score>  (475) 
970.1875982943601

>  <distance_score>  (475) 
9.275852615110185

>  <path>  (475) 
/opt/xchem-fragalysis-2/maxwin/BulkDock/SCRATCH/511016/C20096-P40/C20096-P40.minimised.mol

>  <scratch_subdir>  (475) 
/opt/xchem-fragalysis-2/maxwin/BulkDock/SCRATCH/511016/C20096-P40

>  <fragmenstein_runtime>  (475) 
21.806087970733643

>  <fragmenstein_outcome>  (475) 
too moved

>  <fragmenstein_mode>  (475) 
expansion

>  <fragmenstein_error>  (475) 


$$$$
C20097-P69
     RDKit          3D

 41 44  0  0  0  0  0  0  0  0999 V2000
  -11.5004   -4.3775   20.0597 C   0  0  0  0  0  0  0  0  0  0  0  0
  -11.0152   -2.9644   19.8790 C   0  0  0  0  0  0  0  0  0  0  0  0
  -11.6084   -2.1463   18.8838 C   0  0  0  0  0  0  0  0  0  0  0  0
  -11.2318   -0.8166   18.7170 C   0  0  0  0  0  0  0  0  0  0  0  0
  -10.3294   -0.2284   19.6056 C   0  0  0  0  0  0  0  0  0  0  0  0
   -9.7551   -1.0366   20.6090 C   0  0  0  0  0  0  0  0  0  0  0  0
   -8.7510   -0.5976   21.9450 S   0  0  0  0  0  0  0  0  0  0  0  0
   -8.3304   -2.2517   22.1996 C   0  0  0  0  0  0  0  0  0  0  0  0
   -7.1346   -2.4395   22.8786 N   0  0  0  0  0  0  0  0  0  0  0  0
   -6.2729   -3.6064   22.9859 C   0  0  0  0  0  0  0  0  0  0  0  0
   -6.4184   -4.7267   22.5804 O   0  0  0  0  0  0  0  0  0  0  0  0
   -4.8521   -3.2487   23.6857 C   0  0  0  0  0  0  0  0  0  0  0  0
   -3.9428   -4.5768   23.7640 C   0  0  0  0  0  0  0  0  0  0  0  0
   -2.4056   -4.9557   24.6793 C   0  0  0  0  0  0  0  0  0  0  0  0
   -1.8849   -5.3494   26.1763 C   0  0  0  0  0  0  0  0  0  0  0  0
   -1.2298   -6.4646   26.6903 C   0  0  0  0  0  0  0  0  0  0  0  0
   -0.3147   -6.5653   25.7177 C   0  0  0  0  0  0  0  0  0  0  0  0
    0.9598   -6.0897   25.5836 N   0  0  0  0  0  0  0  0  0  0  0  0
    1.5763   -6.4077   24.4806 C   0  0  0  0  0  0  0  0  0  0  0  0
    0.6118   -6.0220   23.6649 C   0  0  0  0  0  0  0  0  0  0  0  0
   -0.5702   -6.3921   24.3845 C   0  0  0  0  0  0  0  0  0  0  0  0
   -1.6981   -5.7654   24.0376 C   0  0  0  0  0  0  0  0  0  0  0  0
   -9.1083   -3.0970   21.5625 N   0  0  0  0  0  0  0  0  0  0  0  0
   -9.9912   -2.4105   20.6984 C   0  0  0  0  0  0  0  0  0  0  0  0
  -11.8004   -4.8185   19.1037 H   0  0  0  0  0  0  0  0  0  0  0  0
  -10.7176   -5.0109   20.4888 H   0  0  0  0  0  0  0  0  0  0  0  0
  -12.3635   -4.3847   20.7327 H   0  0  0  0  0  0  0  0  0  0  0  0
  -12.3700   -2.5670   18.2287 H   0  0  0  0  0  0  0  0  0  0  0  0
  -11.6929   -0.2161   17.9359 H   0  0  0  0  0  0  0  0  0  0  0  0
  -10.1029    0.8317   19.5422 H   0  0  0  0  0  0  0  0  0  0  0  0
   -6.6570   -1.6407   23.2654 H   0  0  0  0  0  0  0  0  0  0  0  0
   -4.3113   -2.5044   23.1007 H   0  0  0  0  0  0  0  0  0  0  0  0
   -5.0658   -2.7834   24.6529 H   0  0  0  0  0  0  0  0  0  0  0  0
   -3.8106   -4.8713   22.7195 H   0  0  0  0  0  0  0  0  0  0  0  0
   -4.6769   -5.3827   23.9356 H   0  0  0  0  0  0  0  0  0  0  0  0
   -1.6658   -4.5467   26.8981 H   0  0  0  0  0  0  0  0  0  0  0  0
   -1.0174   -6.5360   27.7458 H   0  0  0  0  0  0  0  0  0  0  0  0
    1.2570   -5.1358   25.5062 H   0  0  0  0  0  0  0  0  0  0  0  0
    2.6293   -6.4226   24.5175 H   0  0  0  0  0  0  0  0  0  0  0  0
    0.7128   -5.4396   22.7482 H   0  0  0  0  0  0  0  0  0  0  0  0
   -1.2236   -4.9459   23.5407 H   0  0  0  0  0  0  0  0  0  0  0  0
  1  2  1  0
  2  3  2  0
  3  4  1  0
  4  5  2  0
  5  6  1  0
  6  7  1  0
  7  8  1  0
  8  9  1  0
  9 10  1  0
 10 11  2  0
 10 12  1  0
 12 13  1  0
 13 14  1  0
 14 15  2  0
 15 16  1  0
 16 17  2  0
 17 18  1  0
 18 19  1  0
 19 20  2  0
 20 21  1  0
 21 22  2  0
  8 23  2  0
 23 24  1  0
 24  2  1  0
 24  6  2  0
 22 14  1  0
 21 17  1  0
  1 25  1  0
  1 26  1  0
  1 27  1  0
  3 28  1  0
  4 29  1  0
  5 30  1  0
  9 31  1  0
 12 32  1  0
 12 33  1  0
 13 34  1  0
 13 35  1  0
 15 36  1  0
 16 37  1  0
 18 38  1  0
 19 39  1  0
 20 40  1  0
 22 41  1  0
M  END
>  <Energy>  (476) 
326.56317251270241

>  <compound_id>  (476) 
20097

>  <target_id>  (476) 
1

>  <reference_id>  (476) 
69

>  <inspiration_ids>  (476) 
[69, 40]

>  <energy_score>  (476) 
241.7177546366902

>  <distance_score>  (476) 
10.39654206002074

>  <path>  (476) 
/opt/xchem-fragalysis-2/maxwin/BulkDock/SCRATCH/511016/C20097-P69/C20097-P69.minimised.mol

>  <scratch_subdir>  (476) 
/opt/xchem-fragalysis-2/maxwin/BulkDock/SCRATCH/511016/C20097-P69

>  <fragmenstein_runtime>  (476) 
22.482290029525757

>  <fragmenstein_outcome>  (476) 
too moved

>  <fragmenstein_mode>  (476) 
expansion

>  <fragmenstein_error>  (476) 


$$$$
C20097-P40
     RDKit          3D

 41 44  0  0  0  0  0  0  0  0999 V2000
   -3.3743   -3.4339    6.9714 C   0  0  0  0  0  0  0  0  0  0  0  0
   -2.4868   -2.1700    7.7069 C   0  0  0  0  0  0  0  0  0  0  0  0
   -3.2457   -1.1489    7.2592 C   0  0  0  0  0  0  0  0  0  0  0  0
   -4.1820   -1.0693    8.1670 C   0  0  0  0  0  0  0  0  0  0  0  0
   -3.9838   -2.0851    9.2081 C   0  0  0  0  0  0  0  0  0  0  0  0
   -3.3876   -3.8125    9.9013 C   0  0  0  0  0  0  0  0  0  0  0  0
   -2.5517   -4.3301   12.3591 S   0  0  0  0  0  0  0  0  0  0  0  0
   -1.2648   -2.5003   12.7230 C   0  0  0  0  0  0  0  0  0  0  0  0
   -1.0967   -2.8396   14.5905 N   0  0  0  0  0  0  0  0  0  0  0  0
    0.0377   -2.0337   16.0599 C   0  0  0  0  0  0  0  0  0  0  0  0
    0.6984   -1.0705   15.7510 O   0  0  0  0  0  0  0  0  0  0  0  0
    0.5654   -2.6601   18.1719 C   0  0  0  0  0  0  0  0  0  0  0  0
    0.6739   -3.8419   20.0985 C   0  0  0  0  0  0  0  0  0  0  0  0
    0.7556   -5.1093   21.7451 C   0  0  0  0  0  0  0  0  0  0  0  0
    0.8296   -4.7540   23.1397 C   0  0  0  0  0  0  0  0  0  0  0  0
    1.4628   -5.6611   24.5744 C   0  0  0  0  0  0  0  0  0  0  0  0
    2.1229   -6.9516   24.4935 C   0  0  0  0  0  0  0  0  0  0  0  0
    3.1298   -7.5857   25.1678 N   0  0  0  0  0  0  0  0  0  0  0  0
    3.4598   -8.7297   24.5020 C   0  0  0  0  0  0  0  0  0  0  0  0
    2.6220   -8.8287   23.4123 C   0  0  0  0  0  0  0  0  0  0  0  0
    1.4780   -7.7633   23.5181 C   0  0  0  0  0  0  0  0  0  0  0  0
    0.5350   -6.8439   22.1820 C   0  0  0  0  0  0  0  0  0  0  0  0
   -1.2104   -1.8050   11.1468 N   0  0  0  0  0  0  0  0  0  0  0  0
   -2.2581   -2.3427    9.3620 C   0  0  0  0  0  0  0  0  0  0  0  0
   -4.3814   -3.5274    7.3715 H   0  0  0  0  0  0  0  0  0  0  0  0
   -2.8799   -4.3964    7.0633 H   0  0  0  0  0  0  0  0  0  0  0  0
   -3.6260   -3.1779    5.9324 H   0  0  0  0  0  0  0  0  0  0  0  0
   -3.4550   -0.8775    6.2363 H   0  0  0  0  0  0  0  0  0  0  0  0
   -4.9137   -0.2765    8.2297 H   0  0  0  0  0  0  0  0  0  0  0  0
   -4.3298   -1.3300    9.9251 H   0  0  0  0  0  0  0  0  0  0  0  0
   -1.6861   -3.5830   14.9874 H   0  0  0  0  0  0  0  0  0  0  0  0
    0.9365   -1.6170   18.4304 H   0  0  0  0  0  0  0  0  0  0  0  0
    1.5966   -2.9646   17.8187 H   0  0  0  0  0  0  0  0  0  0  0  0
    0.9628   -3.0730   20.8454 H   0  0  0  0  0  0  0  0  0  0  0  0
    1.5906   -4.5138   20.0879 H   0  0  0  0  0  0  0  0  0  0  0  0
    0.9881   -3.6710   23.1417 H   0  0  0  0  0  0  0  0  0  0  0  0
    2.0887   -5.1523   25.3543 H   0  0  0  0  0  0  0  0  0  0  0  0
    3.6871   -7.1770   25.9035 H   0  0  0  0  0  0  0  0  0  0  0  0
    4.3168   -9.3269   24.7826 H   0  0  0  0  0  0  0  0  0  0  0  0
    2.7029   -9.5413   22.5985 H   0  0  0  0  0  0  0  0  0  0  0  0
    0.4379   -7.5736   21.3520 H   0  0  0  0  0  0  0  0  0  0  0  0
  1  2  1  0
  2  3  2  0
  3  4  1  0
  4  5  2  0
  5  6  1  0
  6  7  1  0
  7  8  1  0
  8  9  1  0
  9 10  1  0
 10 11  2  0
 10 12  1  0
 12 13  1  0
 13 14  1  0
 14 15  2  0
 15 16  1  0
 16 17  2  0
 17 18  1  0
 18 19  1  0
 19 20  2  0
 20 21  1  0
 21 22  2  0
  8 23  2  0
 23 24  1  0
 24  2  1  0
 24  6  2  0
 22 14  1  0
 21 17  1  0
  1 25  1  0
  1 26  1  0
  1 27  1  0
  3 28  1  0
  4 29  1  0
  5 30  1  0
  9 31  1  0
 12 32  1  0
 12 33  1  0
 13 34  1  0
 13 35  1  0
 15 36  1  0
 16 37  1  0
 18 38  1  0
 19 39  1  0
 20 40  1  0
 22 41  1  0
M  END
>  <Energy>  (477) 
2085.3670191305855

>  <compound_id>  (477) 
20097

>  <target_id>  (477) 
1

>  <reference_id>  (477) 
40

>  <inspiration_ids>  (477) 
[69, 40]

>  <energy_score>  (477) 
2000.521601254584

>  <distance_score>  (477) 
7.470223418517468

>  <path>  (477) 
/opt/xchem-fragalysis-2/maxwin/BulkDock/SCRATCH/511016/C20097-P40/C20097-P40.minimised.mol

>  <scratch_subdir>  (477) 
/opt/xchem-fragalysis-2/maxwin/BulkDock/SCRATCH/511016/C20097-P40

>  <fragmenstein_runtime>  (477) 
11.816608190536499

>  <fragmenstein_outcome>  (477) 
too moved

>  <fragmenstein_mode>  (477) 
expansion

>  <fragmenstein_error>  (477) 


$$$$
C20098-P69
     RDKit          3D

 38 41  0  0  0  0  0  0  0  0999 V2000
   -6.1926   -4.0674   14.4942 O   0  0  0  0  0  0  0  0  0  0  0  0
   -5.8228   -3.2320   15.2314 C   0  0  0  0  0  0  0  0  0  0  0  0
   -4.9100   -4.1204   16.8773 C   0  0  0  0  0  0  0  0  0  0  0  0
   -4.4148   -4.5755   18.8215 C   0  0  0  0  0  0  0  0  0  0  0  0
   -4.9511   -4.8150   20.6995 C   0  0  0  0  0  0  0  0  0  0  0  0
   -6.1211   -5.3879   21.3988 C   0  0  0  0  0  0  0  0  0  0  0  0
   -6.6278   -5.3379   22.8042 C   0  0  0  0  0  0  0  0  0  0  0  0
   -6.0600   -4.3740   23.6238 C   0  0  0  0  0  0  0  0  0  0  0  0
   -6.5607   -3.6482   24.6836 N   0  0  0  0  0  0  0  0  0  0  0  0
   -5.7799   -2.5252   24.8790 C   0  0  0  0  0  0  0  0  0  0  0  0
   -4.7129   -2.5890   24.0044 C   0  0  0  0  0  0  0  0  0  0  0  0
   -4.8612   -3.7879   23.2259 C   0  0  0  0  0  0  0  0  0  0  0  0
   -4.5847   -4.0280   21.7944 C   0  0  0  0  0  0  0  0  0  0  0  0
   -5.9759   -1.4733   14.7190 N   0  0  0  0  0  0  0  0  0  0  0  0
   -6.4717   -0.7487   13.2517 C   0  0  0  0  0  0  0  0  0  0  0  0
   -5.9689   -0.7242   12.0318 N   0  0  0  0  0  0  0  0  0  0  0  0
   -6.8410   -0.4512   10.7349 C   0  0  0  0  0  0  0  0  0  0  0  0
   -6.7222   -0.7028    9.3178 C   0  0  0  0  0  0  0  0  0  0  0  0
   -7.6942   -0.2139    8.4308 C   0  0  0  0  0  0  0  0  0  0  0  0
   -8.6913    0.6244    8.9024 C   0  0  0  0  0  0  0  0  0  0  0  0
   -9.5894    1.1242    8.0454 F   0  0  0  0  0  0  0  0  0  0  0  0
   -8.7151    1.0384   10.2279 C   0  0  0  0  0  0  0  0  0  0  0  0
   -7.7195    0.4594   11.0662 C   0  0  0  0  0  0  0  0  0  0  0  0
   -6.8166    0.9858   12.9979 S   0  0  0  0  0  0  0  0  0  0  0  0
   -5.4287   -5.0901   16.7784 H   0  0  0  0  0  0  0  0  0  0  0  0
   -4.0009   -4.3671   16.4049 H   0  0  0  0  0  0  0  0  0  0  0  0
   -3.9860   -5.5770   18.6837 H   0  0  0  0  0  0  0  0  0  0  0  0
   -3.8388   -3.7387   19.0640 H   0  0  0  0  0  0  0  0  0  0  0  0
   -7.0141   -5.6555   20.8321 H   0  0  0  0  0  0  0  0  0  0  0  0
   -7.6073   -5.7615   23.0184 H   0  0  0  0  0  0  0  0  0  0  0  0
   -7.4471   -3.8241   25.1384 H   0  0  0  0  0  0  0  0  0  0  0  0
   -6.0729   -1.7723   25.5995 H   0  0  0  0  0  0  0  0  0  0  0  0
   -4.0155   -1.7870   23.8131 H   0  0  0  0  0  0  0  0  0  0  0  0
   -5.5629   -3.4804   21.6877 H   0  0  0  0  0  0  0  0  0  0  0  0
   -5.7052   -0.9002   15.4706 H   0  0  0  0  0  0  0  0  0  0  0  0
   -5.8996   -1.2809    8.9076 H   0  0  0  0  0  0  0  0  0  0  0  0
   -7.6521   -0.4614    7.3744 H   0  0  0  0  0  0  0  0  0  0  0  0
   -9.4041    1.8010   10.5680 H   0  0  0  0  0  0  0  0  0  0  0  0
  1  2  2  0
  2  3  1  0
  3  4  1  0
  4  5  1  0
  5  6  2  0
  6  7  1  0
  7  8  2  0
  8  9  1  0
  9 10  1  0
 10 11  2  0
 11 12  1  0
 12 13  2  0
  2 14  1  0
 14 15  1  0
 15 16  2  0
 16 17  1  0
 17 18  2  0
 18 19  1  0
 19 20  2  0
 20 21  1  0
 20 22  1  0
 22 23  2  0
 23 24  1  0
 13  5  1  0
 24 15  1  0
 12  8  1  0
 23 17  1  0
  3 25  1  0
  3 26  1  0
  4 27  1  0
  4 28  1  0
  6 29  1  0
  7 30  1  0
  9 31  1  0
 10 32  1  0
 11 33  1  0
 13 34  1  0
 14 35  1  0
 18 36  1  0
 19 37  1  0
 22 38  1  0
M  END
>  <Energy>  (478) 
642.27540563198602

>  <compound_id>  (478) 
20098

>  <target_id>  (478) 
1

>  <reference_id>  (478) 
69

>  <inspiration_ids>  (478) 
[69, 40]

>  <energy_score>  (478) 
595.6991109009801

>  <distance_score>  (478) 
8.95354441889142

>  <path>  (478) 
/opt/xchem-fragalysis-2/maxwin/BulkDock/SCRATCH/511016/C20098-P69/C20098-P69.minimised.mol

>  <scratch_subdir>  (478) 
/opt/xchem-fragalysis-2/maxwin/BulkDock/SCRATCH/511016/C20098-P69

>  <fragmenstein_runtime>  (478) 
23.098850965499878

>  <fragmenstein_outcome>  (478) 
too moved

>  <fragmenstein_mode>  (478) 
expansion

>  <fragmenstein_error>  (478) 


$$$$
C20098-P40
     RDKit          3D

 38 41  0  0  0  0  0  0  0  0999 V2000
   -4.3673    2.2532   22.3174 O   0  0  0  0  0  0  0  0  0  0  0  0
   -5.4608    1.8138   22.5373 C   0  0  0  0  0  0  0  0  0  0  0  0
   -5.6708    1.1061   23.9396 C   0  0  0  0  0  0  0  0  0  0  0  0
   -4.2864    0.6982   24.5737 C   0  0  0  0  0  0  0  0  0  0  0  0
   -4.0885    0.0598   25.9426 C   0  0  0  0  0  0  0  0  0  0  0  0
   -5.0907   -0.4151   26.7829 C   0  0  0  0  0  0  0  0  0  0  0  0
   -4.7890   -1.0073   28.0311 C   0  0  0  0  0  0  0  0  0  0  0  0
   -3.4431   -1.1443   28.4059 C   0  0  0  0  0  0  0  0  0  0  0  0
   -2.8596   -1.6789   29.5322 N   0  0  0  0  0  0  0  0  0  0  0  0
   -1.4928   -1.6674   29.4239 C   0  0  0  0  0  0  0  0  0  0  0  0
   -1.1821   -1.0632   28.2280 C   0  0  0  0  0  0  0  0  0  0  0  0
   -2.4068   -0.7156   27.5887 C   0  0  0  0  0  0  0  0  0  0  0  0
   -2.7478   -0.0827   26.3763 C   0  0  0  0  0  0  0  0  0  0  0  0
   -6.6389    1.7289   21.6852 N   0  0  0  0  0  0  0  0  0  0  0  0
   -6.8156    2.0444   20.3474 C   0  0  0  0  0  0  0  0  0  0  0  0
   -5.8957    2.3170   19.4552 N   0  0  0  0  0  0  0  0  0  0  0  0
   -6.4453    2.4739   18.1726 C   0  0  0  0  0  0  0  0  0  0  0  0
   -5.7570    2.8063   16.9807 C   0  0  0  0  0  0  0  0  0  0  0  0
   -6.4677    3.0366   15.7969 C   0  0  0  0  0  0  0  0  0  0  0  0
   -7.8406    2.8990   15.7744 C   0  0  0  0  0  0  0  0  0  0  0  0
   -8.4958    3.1387   14.6274 F   0  0  0  0  0  0  0  0  0  0  0  0
   -8.5494    2.5137   16.9148 C   0  0  0  0  0  0  0  0  0  0  0  0
   -7.8294    2.3101   18.1108 C   0  0  0  0  0  0  0  0  0  0  0  0
   -8.3902    1.8604   19.6936 S   0  0  0  0  0  0  0  0  0  0  0  0
   -6.1946    1.8064   24.5981 H   0  0  0  0  0  0  0  0  0  0  0  0
   -6.2874    0.2111   23.8068 H   0  0  0  0  0  0  0  0  0  0  0  0
   -3.6803    1.6156   24.5923 H   0  0  0  0  0  0  0  0  0  0  0  0
   -3.8008    0.0283   23.8488 H   0  0  0  0  0  0  0  0  0  0  0  0
   -6.1341   -0.3298   26.4915 H   0  0  0  0  0  0  0  0  0  0  0  0
   -5.5878   -1.3614   28.6744 H   0  0  0  0  0  0  0  0  0  0  0  0
   -3.3787   -2.0325   30.3203 H   0  0  0  0  0  0  0  0  0  0  0  0
   -0.8662   -2.0688   30.2070 H   0  0  0  0  0  0  0  0  0  0  0  0
   -0.1890   -0.8873   27.8375 H   0  0  0  0  0  0  0  0  0  0  0  0
   -1.9438    0.2800   25.7430 H   0  0  0  0  0  0  0  0  0  0  0  0
   -7.4142    1.3738   22.2274 H   0  0  0  0  0  0  0  0  0  0  0  0
   -4.6753    2.9012   17.0028 H   0  0  0  0  0  0  0  0  0  0  0  0
   -5.9540    3.3475   14.9011 H   0  0  0  0  0  0  0  0  0  0  0  0
   -9.6266    2.3985   16.8758 H   0  0  0  0  0  0  0  0  0  0  0  0
  1  2  2  0
  2  3  1  0
  3  4  1  0
  4  5  1  0
  5  6  2  0
  6  7  1  0
  7  8  2  0
  8  9  1  0
  9 10  1  0
 10 11  2  0
 11 12  1  0
 12 13  2  0
  2 14  1  0
 14 15  1  0
 15 16  2  0
 16 17  1  0
 17 18  2  0
 18 19  1  0
 19 20  2  0
 20 21  1  0
 20 22  1  0
 22 23  2  0
 23 24  1  0
 13  5  1  0
 24 15  1  0
 12  8  1  0
 23 17  1  0
  3 25  1  0
  3 26  1  0
  4 27  1  0
  4 28  1  0
  6 29  1  0
  7 30  1  0
  9 31  1  0
 10 32  1  0
 11 33  1  0
 13 34  1  0
 14 35  1  0
 18 36  1  0
 19 37  1  0
 22 38  1  0
M  END
>  <Energy>  (479) 
5.9918642824601083

>  <compound_id>  (479) 
20098

>  <target_id>  (479) 
1

>  <reference_id>  (479) 
40

>  <inspiration_ids>  (479) 
[69, 40]

>  <energy_score>  (479) 
-40.58443044853448

>  <distance_score>  (479) 
10.054903947096514

>  <path>  (479) 
/opt/xchem-fragalysis-2/maxwin/BulkDock/SCRATCH/511016/C20098-P40/C20098-P40.minimised.mol

>  <scratch_subdir>  (479) 
/opt/xchem-fragalysis-2/maxwin/BulkDock/SCRATCH/511016/C20098-P40

>  <fragmenstein_runtime>  (479) 
19.056432723999023

>  <fragmenstein_outcome>  (479) 
too moved

>  <fragmenstein_mode>  (479) 
expansion

>  <fragmenstein_error>  (479) 


$$$$
C20100-P69
     RDKit          3D

 34 37  0  0  0  0  0  0  0  0999 V2000
   -5.8946   -0.4565   14.8313 O   0  0  0  0  0  0  0  0  0  0  0  0
   -6.1865   -1.4145   14.1607 C   0  0  0  0  0  0  0  0  0  0  0  0
   -5.8087   -2.9953   15.1243 O   0  0  0  0  0  0  0  0  0  0  0  0
   -4.8981   -4.0707   16.5871 C   0  0  0  0  0  0  0  0  0  0  0  0
   -4.4384   -4.4503   18.5383 C   0  0  0  0  0  0  0  0  0  0  0  0
   -4.8220   -3.8661   19.8975 C   0  0  0  0  0  0  0  0  0  0  0  0
   -5.6093   -4.0798   21.2950 C   0  0  0  0  0  0  0  0  0  0  0  0
   -5.6687   -5.3604   21.5596 C   0  0  0  0  0  0  0  0  0  0  0  0
   -6.0979   -6.0376   22.6543 N   0  0  0  0  0  0  0  0  0  0  0  0
   -5.4339   -5.3555   23.6051 C   0  0  0  0  0  0  0  0  0  0  0  0
   -4.2714   -4.8737   22.9529 C   0  0  0  0  0  0  0  0  0  0  0  0
   -4.2571   -5.3670   21.4411 C   0  0  0  0  0  0  0  0  0  0  0  0
   -4.0307   -5.3223   19.5949 C   0  0  0  0  0  0  0  0  0  0  0  0
   -6.8089   -0.7635   12.3213 C   0  0  0  0  0  0  0  0  0  0  0  0
   -6.6198   -0.3938   10.7989 C   0  0  0  0  0  0  0  0  0  0  0  0
   -7.1387    0.3575    9.5232 C   0  0  0  0  0  0  0  0  0  0  0  0
   -8.4796    0.2745    9.4318 C   0  0  0  0  0  0  0  0  0  0  0  0
   -9.6031    0.5484    8.1965 S   0  0  0  0  0  0  0  0  0  0  0  0
  -10.7827   -0.2359    9.1625 C   0  0  0  0  0  0  0  0  0  0  0  0
  -10.3961   -0.6332   10.3560 N   0  0  0  0  0  0  0  0  0  0  0  0
   -9.0550   -0.3202   10.5308 C   0  0  0  0  0  0  0  0  0  0  0  0
   -8.0709   -0.7340   11.8232 C   0  0  0  0  0  0  0  0  0  0  0  0
   -5.5508   -4.9367   16.4296 H   0  0  0  0  0  0  0  0  0  0  0  0
   -4.0416   -4.4662   16.0930 H   0  0  0  0  0  0  0  0  0  0  0  0
   -4.2833   -2.8943   19.9453 H   0  0  0  0  0  0  0  0  0  0  0  0
   -6.0656   -3.3527   21.9570 H   0  0  0  0  0  0  0  0  0  0  0  0
   -7.0272   -6.4238   22.7539 H   0  0  0  0  0  0  0  0  0  0  0  0
   -6.0138   -5.0638   24.4657 H   0  0  0  0  0  0  0  0  0  0  0  0
   -3.8978   -3.9371   23.3434 H   0  0  0  0  0  0  0  0  0  0  0  0
   -3.6334   -6.2780   19.1902 H   0  0  0  0  0  0  0  0  0  0  0  0
   -6.7699   -1.2812   10.0456 H   0  0  0  0  0  0  0  0  0  0  0  0
   -6.5016    0.4698    8.6501 H   0  0  0  0  0  0  0  0  0  0  0  0
  -11.7922   -0.3904    8.8068 H   0  0  0  0  0  0  0  0  0  0  0  0
   -8.6934   -1.3526   12.4372 H   0  0  0  0  0  0  0  0  0  0  0  0
  1  2  2  0
  2  3  1  0
  3  4  1  0
  4  5  1  0
  5  6  2  0
  6  7  1  0
  7  8  2  0
  8  9  1  0
  9 10  1  0
 10 11  2  0
 11 12  1  0
 12 13  2  0
  2 14  1  0
 14 15  2  0
 15 16  1  0
 16 17  2  0
 17 18  1  0
 18 19  1  0
 19 20  2  0
 20 21  1  0
 21 22  2  0
 13  5  1  0
 22 14  1  0
 12  8  1  0
 21 17  1  0
  4 23  1  0
  4 24  1  0
  6 25  1  0
  7 26  1  0
  9 27  1  0
 10 28  1  0
 11 29  1  0
 13 30  1  0
 15 31  1  0
 16 32  1  0
 19 33  1  0
 22 34  1  0
M  END
>  <Energy>  (480) 
1101.6354962140558

>  <compound_id>  (480) 
20100

>  <target_id>  (480) 
1

>  <reference_id>  (480) 
69

>  <inspiration_ids>  (480) 
[69, 40]

>  <energy_score>  (480) 
973.8961518770328

>  <distance_score>  (480) 
9.89398173803083

>  <path>  (480) 
/opt/xchem-fragalysis-2/maxwin/BulkDock/SCRATCH/511016/C20100-P69/C20100-P69.minimised.mol

>  <scratch_subdir>  (480) 
/opt/xchem-fragalysis-2/maxwin/BulkDock/SCRATCH/511016/C20100-P69

>  <fragmenstein_runtime>  (480) 
17.549945831298828

>  <fragmenstein_outcome>  (480) 
too moved

>  <fragmenstein_mode>  (480) 
expansion

>  <fragmenstein_error>  (480) 


$$$$
C20100-P40
     RDKit          3D

 34 37  0  0  0  0  0  0  0  0999 V2000
   -5.5913   -4.3655   14.2896 O   0  0  0  0  0  0  0  0  0  0  0  0
   -4.3930   -4.5407   14.5735 C   0  0  0  0  0  0  0  0  0  0  0  0
   -4.1793   -4.6470   16.5308 O   0  0  0  0  0  0  0  0  0  0  0  0
   -4.2793   -4.5714   18.6189 C   0  0  0  0  0  0  0  0  0  0  0  0
   -4.2823   -5.1121   20.6821 C   0  0  0  0  0  0  0  0  0  0  0  0
   -3.8280   -4.4834   21.9122 C   0  0  0  0  0  0  0  0  0  0  0  0
   -2.8401   -5.0022   23.5038 C   0  0  0  0  0  0  0  0  0  0  0  0
   -1.9102   -6.1710   23.7507 C   0  0  0  0  0  0  0  0  0  0  0  0
   -0.2288   -5.7400   23.7683 N   0  0  0  0  0  0  0  0  0  0  0  0
    0.3136   -7.0643   22.8259 C   0  0  0  0  0  0  0  0  0  0  0  0
   -0.5466   -7.5660   21.7846 C   0  0  0  0  0  0  0  0  0  0  0  0
   -2.3521   -7.3553   22.3696 C   0  0  0  0  0  0  0  0  0  0  0  0
   -3.9119   -6.7317   21.5769 C   0  0  0  0  0  0  0  0  0  0  0  0
   -3.1284   -4.4230   12.7459 C   0  0  0  0  0  0  0  0  0  0  0  0
   -2.1893   -2.7640   12.8889 C   0  0  0  0  0  0  0  0  0  0  0  0
   -2.7979   -0.9770   12.3595 C   0  0  0  0  0  0  0  0  0  0  0  0
   -4.2235   -0.7280   10.9917 C   0  0  0  0  0  0  0  0  0  0  0  0
   -3.8469    0.1764    9.0674 S   0  0  0  0  0  0  0  0  0  0  0  0
   -4.7807   -0.9176    8.2205 C   0  0  0  0  0  0  0  0  0  0  0  0
   -4.1858   -2.0575    8.3607 N   0  0  0  0  0  0  0  0  0  0  0  0
   -4.0593   -2.2785    9.8231 C   0  0  0  0  0  0  0  0  0  0  0  0
   -3.8627   -4.1649   10.7740 C   0  0  0  0  0  0  0  0  0  0  0  0
   -5.2968   -4.4683   18.5939 H   0  0  0  0  0  0  0  0  0  0  0  0
   -4.0778   -3.5125   18.8088 H   0  0  0  0  0  0  0  0  0  0  0  0
   -4.0736   -3.4136   21.9727 H   0  0  0  0  0  0  0  0  0  0  0  0
   -2.8219   -4.1528   24.2231 H   0  0  0  0  0  0  0  0  0  0  0  0
    0.1400   -5.4159   24.6350 H   0  0  0  0  0  0  0  0  0  0  0  0
    1.1057   -7.6119   23.3425 H   0  0  0  0  0  0  0  0  0  0  0  0
   -0.3096   -8.2953   21.0012 H   0  0  0  0  0  0  0  0  0  0  0  0
   -4.5686   -6.8548   22.4662 H   0  0  0  0  0  0  0  0  0  0  0  0
   -1.3679   -2.9126   13.6160 H   0  0  0  0  0  0  0  0  0  0  0  0
   -3.1422   -0.2308   13.0333 H   0  0  0  0  0  0  0  0  0  0  0  0
   -5.3865   -0.6750    7.3579 H   0  0  0  0  0  0  0  0  0  0  0  0
   -3.6838   -5.0272   10.0465 H   0  0  0  0  0  0  0  0  0  0  0  0
  1  2  2  0
  2  3  1  0
  3  4  1  0
  4  5  1  0
  5  6  2  0
  6  7  1  0
  7  8  2  0
  8  9  1  0
  9 10  1  0
 10 11  2  0
 11 12  1  0
 12 13  2  0
  2 14  1  0
 14 15  2  0
 15 16  1  0
 16 17  2  0
 17 18  1  0
 18 19  1  0
 19 20  2  0
 20 21  1  0
 21 22  2  0
 13  5  1  0
 22 14  1  0
 12  8  1  0
 21 17  1  0
  4 23  1  0
  4 24  1  0
  6 25  1  0
  7 26  1  0
  9 27  1  0
 10 28  1  0
 11 29  1  0
 13 30  1  0
 15 31  1  0
 16 32  1  0
 19 33  1  0
 22 34  1  0
M  END
>  <Energy>  (481) 
2069.4116021762993

>  <compound_id>  (481) 
20100

>  <target_id>  (481) 
1

>  <reference_id>  (481) 
40

>  <inspiration_ids>  (481) 
[69, 40]

>  <energy_score>  (481) 
1941.6722578393158

>  <distance_score>  (481) 
8.581971197203092

>  <path>  (481) 
/opt/xchem-fragalysis-2/maxwin/BulkDock/SCRATCH/511016/C20100-P40/C20100-P40.minimised.mol

>  <scratch_subdir>  (481) 
/opt/xchem-fragalysis-2/maxwin/BulkDock/SCRATCH/511016/C20100-P40

>  <fragmenstein_runtime>  (481) 
10.319406509399414

>  <fragmenstein_outcome>  (481) 
too moved

>  <fragmenstein_mode>  (481) 
expansion

>  <fragmenstein_error>  (481) 


$$$$
C20097-P69
     RDKit          3D

 41 44  0  0  0  0  0  0  0  0999 V2000
  -11.5004   -4.3775   20.0597 C   0  0  0  0  0  0  0  0  0  0  0  0
  -11.0152   -2.9644   19.8790 C   0  0  0  0  0  0  0  0  0  0  0  0
  -11.6084   -2.1463   18.8838 C   0  0  0  0  0  0  0  0  0  0  0  0
  -11.2318   -0.8166   18.7170 C   0  0  0  0  0  0  0  0  0  0  0  0
  -10.3294   -0.2284   19.6056 C   0  0  0  0  0  0  0  0  0  0  0  0
   -9.7551   -1.0366   20.6090 C   0  0  0  0  0  0  0  0  0  0  0  0
   -8.7510   -0.5976   21.9450 S   0  0  0  0  0  0  0  0  0  0  0  0
   -8.3304   -2.2517   22.1996 C   0  0  0  0  0  0  0  0  0  0  0  0
   -7.1346   -2.4395   22.8786 N   0  0  0  0  0  0  0  0  0  0  0  0
   -6.2729   -3.6064   22.9859 C   0  0  0  0  0  0  0  0  0  0  0  0
   -6.4184   -4.7267   22.5804 O   0  0  0  0  0  0  0  0  0  0  0  0
   -4.8521   -3.2487   23.6857 C   0  0  0  0  0  0  0  0  0  0  0  0
   -3.9428   -4.5768   23.7640 C   0  0  0  0  0  0  0  0  0  0  0  0
   -2.4056   -4.9557   24.6793 C   0  0  0  0  0  0  0  0  0  0  0  0
   -1.8849   -5.3494   26.1763 C   0  0  0  0  0  0  0  0  0  0  0  0
   -1.2298   -6.4646   26.6903 C   0  0  0  0  0  0  0  0  0  0  0  0
   -0.3147   -6.5653   25.7177 C   0  0  0  0  0  0  0  0  0  0  0  0
    0.9598   -6.0897   25.5836 N   0  0  0  0  0  0  0  0  0  0  0  0
    1.5763   -6.4077   24.4806 C   0  0  0  0  0  0  0  0  0  0  0  0
    0.6118   -6.0220   23.6649 C   0  0  0  0  0  0  0  0  0  0  0  0
   -0.5702   -6.3921   24.3845 C   0  0  0  0  0  0  0  0  0  0  0  0
   -1.6981   -5.7654   24.0376 C   0  0  0  0  0  0  0  0  0  0  0  0
   -9.1083   -3.0970   21.5625 N   0  0  0  0  0  0  0  0  0  0  0  0
   -9.9912   -2.4105   20.6984 C   0  0  0  0  0  0  0  0  0  0  0  0
  -11.8004   -4.8185   19.1037 H   0  0  0  0  0  0  0  0  0  0  0  0
  -10.7176   -5.0109   20.4888 H   0  0  0  0  0  0  0  0  0  0  0  0
  -12.3635   -4.3847   20.7327 H   0  0  0  0  0  0  0  0  0  0  0  0
  -12.3700   -2.5670   18.2287 H   0  0  0  0  0  0  0  0  0  0  0  0
  -11.6929   -0.2161   17.9359 H   0  0  0  0  0  0  0  0  0  0  0  0
  -10.1029    0.8317   19.5422 H   0  0  0  0  0  0  0  0  0  0  0  0
   -6.6570   -1.6407   23.2654 H   0  0  0  0  0  0  0  0  0  0  0  0
   -4.3113   -2.5044   23.1007 H   0  0  0  0  0  0  0  0  0  0  0  0
   -5.0658   -2.7834   24.6529 H   0  0  0  0  0  0  0  0  0  0  0  0
   -3.8106   -4.8713   22.7195 H   0  0  0  0  0  0  0  0  0  0  0  0
   -4.6769   -5.3827   23.9356 H   0  0  0  0  0  0  0  0  0  0  0  0
   -1.6658   -4.5467   26.8981 H   0  0  0  0  0  0  0  0  0  0  0  0
   -1.0174   -6.5360   27.7458 H   0  0  0  0  0  0  0  0  0  0  0  0
    1.2570   -5.1358   25.5062 H   0  0  0  0  0  0  0  0  0  0  0  0
    2.6293   -6.4226   24.5175 H   0  0  0  0  0  0  0  0  0  0  0  0
    0.7128   -5.4396   22.7482 H   0  0  0  0  0  0  0  0  0  0  0  0
   -1.2236   -4.9459   23.5407 H   0  0  0  0  0  0  0  0  0  0  0  0
  1  2  1  0
  2  3  2  0
  3  4  1  0
  4  5  2  0
  5  6  1  0
  6  7  1  0
  7  8  1  0
  8  9  1  0
  9 10  1  0
 10 11  2  0
 10 12  1  0
 12 13  1  0
 13 14  1  0
 14 15  2  0
 15 16  1  0
 16 17  2  0
 17 18  1  0
 18 19  1  0
 19 20  2  0
 20 21  1  0
 21 22  2  0
  8 23  2  0
 23 24  1  0
 24  2  1  0
 24  6  2  0
 22 14  1  0
 21 17  1  0
  1 25  1  0
  1 26  1  0
  1 27  1  0
  3 28  1  0
  4 29  1  0
  5 30  1  0
  9 31  1  0
 12 32  1  0
 12 33  1  0
 13 34  1  0
 13 35  1  0
 15 36  1  0
 16 37  1  0
 18 38  1  0
 19 39  1  0
 20 40  1  0
 22 41  1  0
M  END
>  <Energy>  (482) 
326.56317251270241

>  <compound_id>  (482) 
20097

>  <target_id>  (482) 
1

>  <reference_id>  (482) 
69

>  <inspiration_ids>  (482) 
[69, 40]

>  <energy_score>  (482) 
241.7177546366902

>  <distance_score>  (482) 
10.39654206002074

>  <path>  (482) 
/opt/xchem-fragalysis-2/maxwin/BulkDock/SCRATCH/511016/C20097-P69/C20097-P69.minimised.mol

>  <scratch_subdir>  (482) 
/opt/xchem-fragalysis-2/maxwin/BulkDock/SCRATCH/511016/C20097-P69

>  <fragmenstein_runtime>  (482) 
17.506967782974243

>  <fragmenstein_outcome>  (482) 
too moved

>  <fragmenstein_mode>  (482) 
expansion

>  <fragmenstein_error>  (482) 


$$$$
C20097-P40
     RDKit          3D

 41 44  0  0  0  0  0  0  0  0999 V2000
   -3.3743   -3.4339    6.9714 C   0  0  0  0  0  0  0  0  0  0  0  0
   -2.4868   -2.1700    7.7069 C   0  0  0  0  0  0  0  0  0  0  0  0
   -3.2457   -1.1489    7.2592 C   0  0  0  0  0  0  0  0  0  0  0  0
   -4.1820   -1.0693    8.1670 C   0  0  0  0  0  0  0  0  0  0  0  0
   -3.9838   -2.0851    9.2081 C   0  0  0  0  0  0  0  0  0  0  0  0
   -3.3876   -3.8125    9.9013 C   0  0  0  0  0  0  0  0  0  0  0  0
   -2.5517   -4.3301   12.3591 S   0  0  0  0  0  0  0  0  0  0  0  0
   -1.2648   -2.5003   12.7230 C   0  0  0  0  0  0  0  0  0  0  0  0
   -1.0967   -2.8396   14.5905 N   0  0  0  0  0  0  0  0  0  0  0  0
    0.0377   -2.0337   16.0599 C   0  0  0  0  0  0  0  0  0  0  0  0
    0.6984   -1.0705   15.7510 O   0  0  0  0  0  0  0  0  0  0  0  0
    0.5654   -2.6601   18.1719 C   0  0  0  0  0  0  0  0  0  0  0  0
    0.6739   -3.8419   20.0985 C   0  0  0  0  0  0  0  0  0  0  0  0
    0.7556   -5.1093   21.7451 C   0  0  0  0  0  0  0  0  0  0  0  0
    0.8296   -4.7540   23.1397 C   0  0  0  0  0  0  0  0  0  0  0  0
    1.4628   -5.6611   24.5744 C   0  0  0  0  0  0  0  0  0  0  0  0
    2.1229   -6.9516   24.4935 C   0  0  0  0  0  0  0  0  0  0  0  0
    3.1298   -7.5857   25.1678 N   0  0  0  0  0  0  0  0  0  0  0  0
    3.4598   -8.7297   24.5020 C   0  0  0  0  0  0  0  0  0  0  0  0
    2.6220   -8.8287   23.4123 C   0  0  0  0  0  0  0  0  0  0  0  0
    1.4780   -7.7633   23.5181 C   0  0  0  0  0  0  0  0  0  0  0  0
    0.5350   -6.8439   22.1820 C   0  0  0  0  0  0  0  0  0  0  0  0
   -1.2104   -1.8050   11.1468 N   0  0  0  0  0  0  0  0  0  0  0  0
   -2.2581   -2.3427    9.3620 C   0  0  0  0  0  0  0  0  0  0  0  0
   -4.3814   -3.5274    7.3715 H   0  0  0  0  0  0  0  0  0  0  0  0
   -2.8799   -4.3964    7.0633 H   0  0  0  0  0  0  0  0  0  0  0  0
   -3.6260   -3.1779    5.9324 H   0  0  0  0  0  0  0  0  0  0  0  0
   -3.4550   -0.8775    6.2363 H   0  0  0  0  0  0  0  0  0  0  0  0
   -4.9137   -0.2765    8.2297 H   0  0  0  0  0  0  0  0  0  0  0  0
   -4.3298   -1.3300    9.9251 H   0  0  0  0  0  0  0  0  0  0  0  0
   -1.6861   -3.5830   14.9874 H   0  0  0  0  0  0  0  0  0  0  0  0
    0.9365   -1.6170   18.4304 H   0  0  0  0  0  0  0  0  0  0  0  0
    1.5966   -2.9646   17.8187 H   0  0  0  0  0  0  0  0  0  0  0  0
    0.9628   -3.0730   20.8454 H   0  0  0  0  0  0  0  0  0  0  0  0
    1.5906   -4.5138   20.0879 H   0  0  0  0  0  0  0  0  0  0  0  0
    0.9881   -3.6710   23.1417 H   0  0  0  0  0  0  0  0  0  0  0  0
    2.0887   -5.1523   25.3543 H   0  0  0  0  0  0  0  0  0  0  0  0
    3.6871   -7.1770   25.9035 H   0  0  0  0  0  0  0  0  0  0  0  0
    4.3168   -9.3269   24.7826 H   0  0  0  0  0  0  0  0  0  0  0  0
    2.7029   -9.5413   22.5985 H   0  0  0  0  0  0  0  0  0  0  0  0
    0.4379   -7.5736   21.3520 H   0  0  0  0  0  0  0  0  0  0  0  0
  1  2  1  0
  2  3  2  0
  3  4  1  0
  4  5  2  0
  5  6  1  0
  6  7  1  0
  7  8  1  0
  8  9  1  0
  9 10  1  0
 10 11  2  0
 10 12  1  0
 12 13  1  0
 13 14  1  0
 14 15  2  0
 15 16  1  0
 16 17  2  0
 17 18  1  0
 18 19  1  0
 19 20  2  0
 20 21  1  0
 21 22  2  0
  8 23  2  0
 23 24  1  0
 24  2  1  0
 24  6  2  0
 22 14  1  0
 21 17  1  0
  1 25  1  0
  1 26  1  0
  1 27  1  0
  3 28  1  0
  4 29  1  0
  5 30  1  0
  9 31  1  0
 12 32  1  0
 12 33  1  0
 13 34  1  0
 13 35  1  0
 15 36  1  0
 16 37  1  0
 18 38  1  0
 19 39  1  0
 20 40  1  0
 22 41  1  0
M  END
>  <Energy>  (483) 
2085.3670191305855

>  <compound_id>  (483) 
20097

>  <target_id>  (483) 
1

>  <reference_id>  (483) 
40

>  <inspiration_ids>  (483) 
[69, 40]

>  <energy_score>  (483) 
2000.521601254584

>  <distance_score>  (483) 
7.470223418517468

>  <path>  (483) 
/opt/xchem-fragalysis-2/maxwin/BulkDock/SCRATCH/511016/C20097-P40/C20097-P40.minimised.mol

>  <scratch_subdir>  (483) 
/opt/xchem-fragalysis-2/maxwin/BulkDock/SCRATCH/511016/C20097-P40

>  <fragmenstein_runtime>  (483) 
11.468379735946655

>  <fragmenstein_outcome>  (483) 
too moved

>  <fragmenstein_mode>  (483) 
expansion

>  <fragmenstein_error>  (483) 


$$$$
C20098-P69
     RDKit          3D

 38 41  0  0  0  0  0  0  0  0999 V2000
   -6.1926   -4.0674   14.4942 O   0  0  0  0  0  0  0  0  0  0  0  0
   -5.8228   -3.2320   15.2314 C   0  0  0  0  0  0  0  0  0  0  0  0
   -4.9100   -4.1204   16.8773 C   0  0  0  0  0  0  0  0  0  0  0  0
   -4.4148   -4.5755   18.8215 C   0  0  0  0  0  0  0  0  0  0  0  0
   -4.9511   -4.8150   20.6995 C   0  0  0  0  0  0  0  0  0  0  0  0
   -6.1211   -5.3879   21.3988 C   0  0  0  0  0  0  0  0  0  0  0  0
   -6.6278   -5.3379   22.8042 C   0  0  0  0  0  0  0  0  0  0  0  0
   -6.0600   -4.3740   23.6238 C   0  0  0  0  0  0  0  0  0  0  0  0
   -6.5607   -3.6482   24.6836 N   0  0  0  0  0  0  0  0  0  0  0  0
   -5.7799   -2.5252   24.8790 C   0  0  0  0  0  0  0  0  0  0  0  0
   -4.7129   -2.5890   24.0044 C   0  0  0  0  0  0  0  0  0  0  0  0
   -4.8612   -3.7879   23.2259 C   0  0  0  0  0  0  0  0  0  0  0  0
   -4.5847   -4.0280   21.7944 C   0  0  0  0  0  0  0  0  0  0  0  0
   -5.9759   -1.4733   14.7190 N   0  0  0  0  0  0  0  0  0  0  0  0
   -6.4717   -0.7487   13.2517 C   0  0  0  0  0  0  0  0  0  0  0  0
   -5.9689   -0.7242   12.0318 N   0  0  0  0  0  0  0  0  0  0  0  0
   -6.8410   -0.4512   10.7349 C   0  0  0  0  0  0  0  0  0  0  0  0
   -6.7222   -0.7028    9.3178 C   0  0  0  0  0  0  0  0  0  0  0  0
   -7.6942   -0.2139    8.4308 C   0  0  0  0  0  0  0  0  0  0  0  0
   -8.6913    0.6244    8.9024 C   0  0  0  0  0  0  0  0  0  0  0  0
   -9.5894    1.1242    8.0454 F   0  0  0  0  0  0  0  0  0  0  0  0
   -8.7151    1.0384   10.2279 C   0  0  0  0  0  0  0  0  0  0  0  0
   -7.7195    0.4594   11.0662 C   0  0  0  0  0  0  0  0  0  0  0  0
   -6.8166    0.9858   12.9979 S   0  0  0  0  0  0  0  0  0  0  0  0
   -5.4287   -5.0901   16.7784 H   0  0  0  0  0  0  0  0  0  0  0  0
   -4.0009   -4.3671   16.4049 H   0  0  0  0  0  0  0  0  0  0  0  0
   -3.9860   -5.5770   18.6837 H   0  0  0  0  0  0  0  0  0  0  0  0
   -3.8388   -3.7387   19.0640 H   0  0  0  0  0  0  0  0  0  0  0  0
   -7.0141   -5.6555   20.8321 H   0  0  0  0  0  0  0  0  0  0  0  0
   -7.6073   -5.7615   23.0184 H   0  0  0  0  0  0  0  0  0  0  0  0
   -7.4471   -3.8241   25.1384 H   0  0  0  0  0  0  0  0  0  0  0  0
   -6.0729   -1.7723   25.5995 H   0  0  0  0  0  0  0  0  0  0  0  0
   -4.0155   -1.7870   23.8131 H   0  0  0  0  0  0  0  0  0  0  0  0
   -5.5629   -3.4804   21.6877 H   0  0  0  0  0  0  0  0  0  0  0  0
   -5.7052   -0.9002   15.4706 H   0  0  0  0  0  0  0  0  0  0  0  0
   -5.8996   -1.2809    8.9076 H   0  0  0  0  0  0  0  0  0  0  0  0
   -7.6521   -0.4614    7.3744 H   0  0  0  0  0  0  0  0  0  0  0  0
   -9.4041    1.8010   10.5680 H   0  0  0  0  0  0  0  0  0  0  0  0
  1  2  2  0
  2  3  1  0
  3  4  1  0
  4  5  1  0
  5  6  2  0
  6  7  1  0
  7  8  2  0
  8  9  1  0
  9 10  1  0
 10 11  2  0
 11 12  1  0
 12 13  2  0
  2 14  1  0
 14 15  1  0
 15 16  2  0
 16 17  1  0
 17 18  2  0
 18 19  1  0
 19 20  2  0
 20 21  1  0
 20 22  1  0
 22 23  2  0
 23 24  1  0
 13  5  1  0
 24 15  1  0
 12  8  1  0
 23 17  1  0
  3 25  1  0
  3 26  1  0
  4 27  1  0
  4 28  1  0
  6 29  1  0
  7 30  1  0
  9 31  1  0
 10 32  1  0
 11 33  1  0
 13 34  1  0
 14 35  1  0
 18 36  1  0
 19 37  1  0
 22 38  1  0
M  END
>  <Energy>  (484) 
642.27540563198602

>  <compound_id>  (484) 
20098

>  <target_id>  (484) 
1

>  <reference_id>  (484) 
69

>  <inspiration_ids>  (484) 
[69, 40]

>  <energy_score>  (484) 
595.6991109009801

>  <distance_score>  (484) 
8.95354441889142

>  <path>  (484) 
/opt/xchem-fragalysis-2/maxwin/BulkDock/SCRATCH/511016/C20098-P69/C20098-P69.minimised.mol

>  <scratch_subdir>  (484) 
/opt/xchem-fragalysis-2/maxwin/BulkDock/SCRATCH/511016/C20098-P69

>  <fragmenstein_runtime>  (484) 
19.78504729270935

>  <fragmenstein_outcome>  (484) 
too moved

>  <fragmenstein_mode>  (484) 
expansion

>  <fragmenstein_error>  (484) 


$$$$
C20098-P40
     RDKit          3D

 38 41  0  0  0  0  0  0  0  0999 V2000
   -4.3673    2.2532   22.3174 O   0  0  0  0  0  0  0  0  0  0  0  0
   -5.4608    1.8138   22.5373 C   0  0  0  0  0  0  0  0  0  0  0  0
   -5.6708    1.1061   23.9396 C   0  0  0  0  0  0  0  0  0  0  0  0
   -4.2864    0.6982   24.5737 C   0  0  0  0  0  0  0  0  0  0  0  0
   -4.0885    0.0598   25.9426 C   0  0  0  0  0  0  0  0  0  0  0  0
   -5.0907   -0.4151   26.7829 C   0  0  0  0  0  0  0  0  0  0  0  0
   -4.7890   -1.0073   28.0311 C   0  0  0  0  0  0  0  0  0  0  0  0
   -3.4431   -1.1443   28.4059 C   0  0  0  0  0  0  0  0  0  0  0  0
   -2.8596   -1.6789   29.5322 N   0  0  0  0  0  0  0  0  0  0  0  0
   -1.4928   -1.6674   29.4239 C   0  0  0  0  0  0  0  0  0  0  0  0
   -1.1821   -1.0632   28.2280 C   0  0  0  0  0  0  0  0  0  0  0  0
   -2.4068   -0.7156   27.5887 C   0  0  0  0  0  0  0  0  0  0  0  0
   -2.7478   -0.0827   26.3763 C   0  0  0  0  0  0  0  0  0  0  0  0
   -6.6389    1.7289   21.6852 N   0  0  0  0  0  0  0  0  0  0  0  0
   -6.8156    2.0444   20.3474 C   0  0  0  0  0  0  0  0  0  0  0  0
   -5.8957    2.3170   19.4552 N   0  0  0  0  0  0  0  0  0  0  0  0
   -6.4453    2.4739   18.1726 C   0  0  0  0  0  0  0  0  0  0  0  0
   -5.7570    2.8063   16.9807 C   0  0  0  0  0  0  0  0  0  0  0  0
   -6.4677    3.0366   15.7969 C   0  0  0  0  0  0  0  0  0  0  0  0
   -7.8406    2.8990   15.7744 C   0  0  0  0  0  0  0  0  0  0  0  0
   -8.4958    3.1387   14.6274 F   0  0  0  0  0  0  0  0  0  0  0  0
   -8.5494    2.5137   16.9148 C   0  0  0  0  0  0  0  0  0  0  0  0
   -7.8294    2.3101   18.1108 C   0  0  0  0  0  0  0  0  0  0  0  0
   -8.3902    1.8604   19.6936 S   0  0  0  0  0  0  0  0  0  0  0  0
   -6.1946    1.8064   24.5981 H   0  0  0  0  0  0  0  0  0  0  0  0
   -6.2874    0.2111   23.8068 H   0  0  0  0  0  0  0  0  0  0  0  0
   -3.6803    1.6156   24.5923 H   0  0  0  0  0  0  0  0  0  0  0  0
   -3.8008    0.0283   23.8488 H   0  0  0  0  0  0  0  0  0  0  0  0
   -6.1341   -0.3298   26.4915 H   0  0  0  0  0  0  0  0  0  0  0  0
   -5.5878   -1.3614   28.6744 H   0  0  0  0  0  0  0  0  0  0  0  0
   -3.3787   -2.0325   30.3203 H   0  0  0  0  0  0  0  0  0  0  0  0
   -0.8662   -2.0688   30.2070 H   0  0  0  0  0  0  0  0  0  0  0  0
   -0.1890   -0.8873   27.8375 H   0  0  0  0  0  0  0  0  0  0  0  0
   -1.9438    0.2800   25.7430 H   0  0  0  0  0  0  0  0  0  0  0  0
   -7.4142    1.3738   22.2274 H   0  0  0  0  0  0  0  0  0  0  0  0
   -4.6753    2.9012   17.0028 H   0  0  0  0  0  0  0  0  0  0  0  0
   -5.9540    3.3475   14.9011 H   0  0  0  0  0  0  0  0  0  0  0  0
   -9.6266    2.3985   16.8758 H   0  0  0  0  0  0  0  0  0  0  0  0
  1  2  2  0
  2  3  1  0
  3  4  1  0
  4  5  1  0
  5  6  2  0
  6  7  1  0
  7  8  2  0
  8  9  1  0
  9 10  1  0
 10 11  2  0
 11 12  1  0
 12 13  2  0
  2 14  1  0
 14 15  1  0
 15 16  2  0
 16 17  1  0
 17 18  2  0
 18 19  1  0
 19 20  2  0
 20 21  1  0
 20 22  1  0
 22 23  2  0
 23 24  1  0
 13  5  1  0
 24 15  1  0
 12  8  1  0
 23 17  1  0
  3 25  1  0
  3 26  1  0
  4 27  1  0
  4 28  1  0
  6 29  1  0
  7 30  1  0
  9 31  1  0
 10 32  1  0
 11 33  1  0
 13 34  1  0
 14 35  1  0
 18 36  1  0
 19 37  1  0
 22 38  1  0
M  END
>  <Energy>  (485) 
5.9918642824601083

>  <compound_id>  (485) 
20098

>  <target_id>  (485) 
1

>  <reference_id>  (485) 
40

>  <inspiration_ids>  (485) 
[69, 40]

>  <energy_score>  (485) 
-40.58443044853448

>  <distance_score>  (485) 
10.054903947096514

>  <path>  (485) 
/opt/xchem-fragalysis-2/maxwin/BulkDock/SCRATCH/511016/C20098-P40/C20098-P40.minimised.mol

>  <scratch_subdir>  (485) 
/opt/xchem-fragalysis-2/maxwin/BulkDock/SCRATCH/511016/C20098-P40

>  <fragmenstein_runtime>  (485) 
15.164255619049072

>  <fragmenstein_outcome>  (485) 
too moved

>  <fragmenstein_mode>  (485) 
expansion

>  <fragmenstein_error>  (485) 


$$$$
C56100-P112
     RDKit          3D

 42 44  0  0  0  0  0  0  0  0999 V2000
   -7.0616   -7.9750   14.0332 O   0  0  0  0  0  0  0  0  0  0  0  0
   -6.2124   -8.6547   13.5296 C   0  0  0  0  0  0  0  0  0  0  0  0
   -6.6598   -9.8736   12.6667 C   0  0  0  0  0  0  0  0  0  0  0  0
   -8.1436  -10.3399   12.8819 C   0  0  0  0  0  0  0  0  0  0  0  0
   -8.4669  -11.6571   12.1236 C   0  0  0  0  0  0  0  0  0  0  0  0
   -9.5140  -12.5651   12.6030 N   0  0  0  0  0  0  0  0  0  0  0  0
   -9.7751  -12.9723   13.8819 C   0  0  0  0  0  0  0  0  0  0  0  0
  -10.3959  -14.1889   13.7320 C   0  0  0  0  0  0  0  0  0  0  0  0
  -10.7041  -15.1728   14.8582 C   0  0  0  0  0  0  0  0  0  0  0  0
  -10.4620  -15.0381   16.2018 C   0  0  0  0  0  0  0  0  0  0  0  0
  -11.0108  -16.1935   16.7751 C   0  0  0  0  0  0  0  0  0  0  0  0
  -11.5333  -17.0096   15.8589 N   0  0  0  0  0  0  0  0  0  0  0  0
  -11.2761  -16.3917   14.6942 N   0  0  0  0  0  0  0  0  0  0  0  0
  -10.6627  -14.4106   12.4165 N   0  0  0  0  0  0  0  0  0  0  0  0
  -10.1352  -13.4005   11.7264 N   0  0  0  0  0  0  0  0  0  0  0  0
   -4.7660   -8.5053   13.5112 N   0  0  0  0  0  0  0  0  0  0  0  0
   -3.8851   -7.5300   14.1850 C   0  0  0  0  0  0  0  0  0  0  0  0
   -2.5333   -7.3191   13.4577 C   0  0  0  0  0  0  0  0  0  0  0  0
   -1.5337   -6.5159   14.3012 C   0  0  0  0  0  0  0  0  0  0  0  0
   -1.4248   -7.0350   15.7355 C   0  0  0  0  0  0  0  0  0  0  0  0
   -2.2606   -8.1834   15.9460 O   0  0  0  0  0  0  0  0  0  0  0  0
   -3.6420   -7.8924   15.6676 C   0  0  0  0  0  0  0  0  0  0  0  0
   -5.9859  -10.7084   12.8759 H   0  0  0  0  0  0  0  0  0  0  0  0
   -6.5258   -9.5941   11.6151 H   0  0  0  0  0  0  0  0  0  0  0  0
   -8.3492  -10.4439   13.9505 H   0  0  0  0  0  0  0  0  0  0  0  0
   -8.8220   -9.5523   12.5310 H   0  0  0  0  0  0  0  0  0  0  0  0
   -8.7202  -11.4098   11.0854 H   0  0  0  0  0  0  0  0  0  0  0  0
   -7.5593  -12.2684   12.0958 H   0  0  0  0  0  0  0  0  0  0  0  0
   -9.4302  -12.4325   14.7479 H   0  0  0  0  0  0  0  0  0  0  0  0
   -9.9935  -14.2067   16.7074 H   0  0  0  0  0  0  0  0  0  0  0  0
  -11.0605  -16.4710   17.8199 H   0  0  0  0  0  0  0  0  0  0  0  0
  -11.5363  -16.8340   13.8231 H   0  0  0  0  0  0  0  0  0  0  0  0
   -4.3508   -9.3225   13.0559 H   0  0  0  0  0  0  0  0  0  0  0  0
   -4.4505   -6.5897   14.1713 H   0  0  0  0  0  0  0  0  0  0  0  0
   -2.7031   -6.8186   12.4972 H   0  0  0  0  0  0  0  0  0  0  0  0
   -2.0877   -8.2918   13.2190 H   0  0  0  0  0  0  0  0  0  0  0  0
   -0.5481   -6.5248   13.8217 H   0  0  0  0  0  0  0  0  0  0  0  0
   -1.8418   -5.4634   14.3284 H   0  0  0  0  0  0  0  0  0  0  0  0
   -0.3941   -7.3193   15.9682 H   0  0  0  0  0  0  0  0  0  0  0  0
   -1.7045   -6.2546   16.4532 H   0  0  0  0  0  0  0  0  0  0  0  0
   -4.2260   -8.7691   15.9637 H   0  0  0  0  0  0  0  0  0  0  0  0
   -3.9595   -7.0674   16.3174 H   0  0  0  0  0  0  0  0  0  0  0  0
  1  2  2  0
  2  3  1  0
  3  4  1  0
  4  5  1  0
  5  6  1  0
  6  7  1  0
  7  8  2  0
  8  9  1  0
  9 10  2  0
 10 11  1  0
 11 12  2  0
 12 13  1  0
  8 14  1  0
 14 15  2  0
  2 16  1  0
 16 17  1  0
 17 18  1  0
 18 19  1  0
 19 20  1  0
 20 21  1  0
 21 22  1  0
 15  6  1  0
 22 17  1  0
 13  9  1  0
  3 23  1  0
  3 24  1  0
  4 25  1  0
  4 26  1  0
  5 27  1  0
  5 28  1  0
  7 29  1  0
 10 30  1  0
 11 31  1  0
 13 32  1  0
 16 33  1  0
 17 34  1  0
 18 35  1  0
 18 36  1  0
 19 37  1  0
 19 38  1  0
 20 39  1  0
 20 40  1  0
 22 41  1  0
 22 42  1  0
M  END
>  <Energy>  (486) 
20.697815671074505

>  <compound_id>  (486) 
56100

>  <target_id>  (486) 
1

>  <reference_id>  (486) 
112

>  <inspiration_ids>  (486) 
[112, 81]

>  <energy_score>  (486) 
-21.392254411972885

>  <distance_score>  (486) 
14.040137134925153

>  <path>  (486) 
/opt/xchem-fragalysis-2/maxwin/BulkDock/SCRATCH/511016/C56100-P112/C56100-P112.minimised.mol

>  <scratch_subdir>  (486) 
/opt/xchem-fragalysis-2/maxwin/BulkDock/SCRATCH/511016/C56100-P112

>  <fragmenstein_runtime>  (486) 
16.483922958374023

>  <fragmenstein_outcome>  (486) 
too moved

>  <fragmenstein_mode>  (486) 
expansion

>  <fragmenstein_error>  (486) 


$$$$
C56100-P81
     RDKit          3D

 42 44  0  0  0  0  0  0  0  0999 V2000
    4.3535  -11.8891   14.4900 O   0  0  0  0  0  0  0  0  0  0  0  0
    3.4313  -11.8097   15.2676 C   0  0  0  0  0  0  0  0  0  0  0  0
    1.4882  -12.6663   14.6677 C   0  0  0  0  0  0  0  0  0  0  0  0
   -0.3178  -13.8594   14.0155 C   0  0  0  0  0  0  0  0  0  0  0  0
   -2.1868  -14.8200   14.8229 C   0  0  0  0  0  0  0  0  0  0  0  0
   -3.6635  -16.1154   14.3192 N   0  0  0  0  0  0  0  0  0  0  0  0
   -5.4221  -16.2597   13.6421 C   0  0  0  0  0  0  0  0  0  0  0  0
   -6.0774  -17.6869   13.1549 C   0  0  0  0  0  0  0  0  0  0  0  0
   -7.1118  -19.0454   12.0371 C   0  0  0  0  0  0  0  0  0  0  0  0
   -8.4776  -19.4195   11.5824 C   0  0  0  0  0  0  0  0  0  0  0  0
   -8.7505  -20.8120   11.5294 C   0  0  0  0  0  0  0  0  0  0  0  0
   -7.8721  -21.3805   12.3430 N   0  0  0  0  0  0  0  0  0  0  0  0
   -6.8584  -20.3686   12.3662 N   0  0  0  0  0  0  0  0  0  0  0  0
   -5.0954  -18.4047   13.7952 N   0  0  0  0  0  0  0  0  0  0  0  0
   -3.8580  -17.4016   14.6010 N   0  0  0  0  0  0  0  0  0  0  0  0
    3.4937  -11.0365   16.7001 N   0  0  0  0  0  0  0  0  0  0  0  0
    4.5436  -10.2247   17.3166 C   0  0  0  0  0  0  0  0  0  0  0  0
    5.2331   -9.3357   16.2518 C   0  0  0  0  0  0  0  0  0  0  0  0
    5.7912   -8.0651   16.8759 C   0  0  0  0  0  0  0  0  0  0  0  0
    4.6957   -7.2568   17.5557 C   0  0  0  0  0  0  0  0  0  0  0  0
    3.6191   -8.0707   18.0348 O   0  0  0  0  0  0  0  0  0  0  0  0
    4.0507   -9.3551   18.4900 C   0  0  0  0  0  0  0  0  0  0  0  0
    1.4712  -12.7445   15.7325 H   0  0  0  0  0  0  0  0  0  0  0  0
    1.1887  -11.9743   13.9609 H   0  0  0  0  0  0  0  0  0  0  0  0
   -0.6485  -12.9607   13.5047 H   0  0  0  0  0  0  0  0  0  0  0  0
    0.0691  -14.4501   13.1589 H   0  0  0  0  0  0  0  0  0  0  0  0
   -2.9013  -14.3802   15.5824 H   0  0  0  0  0  0  0  0  0  0  0  0
   -1.9543  -15.1749   15.8059 H   0  0  0  0  0  0  0  0  0  0  0  0
   -5.5409  -15.3594   13.0384 H   0  0  0  0  0  0  0  0  0  0  0  0
   -9.3989  -18.8693   11.7282 H   0  0  0  0  0  0  0  0  0  0  0  0
   -9.6409  -21.3532   11.2532 H   0  0  0  0  0  0  0  0  0  0  0  0
   -5.9184  -20.7444   12.3026 H   0  0  0  0  0  0  0  0  0  0  0  0
    2.5874  -11.0476   17.1052 H   0  0  0  0  0  0  0  0  0  0  0  0
    5.2655  -10.9523   17.7054 H   0  0  0  0  0  0  0  0  0  0  0  0
    4.5196   -9.0563   15.4656 H   0  0  0  0  0  0  0  0  0  0  0  0
    6.0335   -9.9023   15.7618 H   0  0  0  0  0  0  0  0  0  0  0  0
    6.3135   -7.4502   16.1372 H   0  0  0  0  0  0  0  0  0  0  0  0
    6.5152   -8.3613   17.6413 H   0  0  0  0  0  0  0  0  0  0  0  0
    4.2614   -6.5408   16.8501 H   0  0  0  0  0  0  0  0  0  0  0  0
    5.1048   -6.6816   18.3934 H   0  0  0  0  0  0  0  0  0  0  0  0
    3.2175   -9.8223   19.0133 H   0  0  0  0  0  0  0  0  0  0  0  0
    4.8491   -9.2143   19.2296 H   0  0  0  0  0  0  0  0  0  0  0  0
  1  2  2  0
  2  3  1  0
  3  4  1  0
  4  5  1  0
  5  6  1  0
  6  7  1  0
  7  8  2  0
  8  9  1  0
  9 10  2  0
 10 11  1  0
 11 12  2  0
 12 13  1  0
  8 14  1  0
 14 15  2  0
  2 16  1  0
 16 17  1  0
 17 18  1  0
 18 19  1  0
 19 20  1  0
 20 21  1  0
 21 22  1  0
 15  6  1  0
 22 17  1  0
 13  9  1  0
  3 23  1  0
  3 24  1  0
  4 25  1  0
  4 26  1  0
  5 27  1  0
  5 28  1  0
  7 29  1  0
 10 30  1  0
 11 31  1  0
 13 32  1  0
 16 33  1  0
 17 34  1  0
 18 35  1  0
 18 36  1  0
 19 37  1  0
 19 38  1  0
 20 39  1  0
 20 40  1  0
 22 41  1  0
 22 42  1  0
M  END
>  <Energy>  (487) 
1102.8767390222247

>  <compound_id>  (487) 
56100

>  <target_id>  (487) 
1

>  <reference_id>  (487) 
81

>  <inspiration_ids>  (487) 
[112, 81]

>  <energy_score>  (487) 
1060.786668939186

>  <distance_score>  (487) 
10.261199072773781

>  <path>  (487) 
/opt/xchem-fragalysis-2/maxwin/BulkDock/SCRATCH/511016/C56100-P81/C56100-P81.minimised.mol

>  <scratch_subdir>  (487) 
/opt/xchem-fragalysis-2/maxwin/BulkDock/SCRATCH/511016/C56100-P81

>  <fragmenstein_runtime>  (487) 
26.04602885246277

>  <fragmenstein_outcome>  (487) 
too moved

>  <fragmenstein_mode>  (487) 
expansion

>  <fragmenstein_error>  (487) 


$$$$
C56102-P112
     RDKit          3D

 40 41  0  0  0  0  0  0  0  0999 V2000
   -0.8744  -21.8847   15.7807 C   0  0  0  0  0  0  0  0  0  0  0  0
    0.5730  -21.5354   15.4896 C   0  0  0  0  0  0  0  0  0  0  0  0
    0.8693  -21.6973   14.0954 O   0  0  0  0  0  0  0  0  0  0  0  0
    0.5378  -20.6514   13.2899 C   0  0  0  0  0  0  0  0  0  0  0  0
    0.0262  -19.6045   13.6688 O   0  0  0  0  0  0  0  0  0  0  0  0
    0.8919  -20.9543   11.8421 C   0  0  0  0  0  0  0  0  0  0  0  0
   -0.3595  -21.3393   10.9917 N   0  0  0  0  0  0  0  0  0  0  0  0
   -1.6241  -22.2194   11.7653 S   0  0  0  0  0  0  0  0  0  0  0  0
   -2.3148  -21.3371   12.6760 O   0  0  0  0  0  0  0  0  0  0  0  0
   -1.0973  -23.4881   12.2078 O   0  0  0  0  0  0  0  0  0  0  0  0
   -2.9153  -22.6886   10.6644 C   0  0  0  0  0  0  0  0  0  0  0  0
   -3.0337  -23.2205    9.3972 C   0  0  0  0  0  0  0  0  0  0  0  0
   -4.4131  -23.4588    9.2174 C   0  0  0  0  0  0  0  0  0  0  0  0
   -5.1347  -23.0722   10.2688 N   0  0  0  0  0  0  0  0  0  0  0  0
   -4.2001  -22.6592   11.1401 N   0  0  0  0  0  0  0  0  0  0  0  0
    1.7376  -19.6913   11.3032 C   0  0  0  0  0  0  0  0  0  0  0  0
    3.0717  -19.4575   12.0844 C   0  0  0  0  0  0  0  0  0  0  0  0
    3.9852  -18.3746   11.4798 C   0  0  0  0  0  0  0  0  0  0  0  0
    4.1138  -18.5378    9.9778 C   0  0  0  0  0  0  0  0  0  0  0  0
    2.7412  -18.7692    9.3436 C   0  0  0  0  0  0  0  0  0  0  0  0
    2.0777  -19.9016    9.9176 O   0  0  0  0  0  0  0  0  0  0  0  0
   -1.0645  -21.8765   16.8578 H   0  0  0  0  0  0  0  0  0  0  0  0
   -1.5536  -21.1689   15.3087 H   0  0  0  0  0  0  0  0  0  0  0  0
   -1.1222  -22.8745   15.3838 H   0  0  0  0  0  0  0  0  0  0  0  0
    1.2299  -22.2224   16.0332 H   0  0  0  0  0  0  0  0  0  0  0  0
    0.8182  -20.5228   15.8294 H   0  0  0  0  0  0  0  0  0  0  0  0
    1.5494  -21.8321   11.7964 H   0  0  0  0  0  0  0  0  0  0  0  0
   -0.7101  -20.5331   10.4523 H   0  0  0  0  0  0  0  0  0  0  0  0
   -2.2241  -23.4406    8.7163 H   0  0  0  0  0  0  0  0  0  0  0  0
   -4.9200  -23.8862    8.3609 H   0  0  0  0  0  0  0  0  0  0  0  0
   -4.4778  -22.3875   12.0836 H   0  0  0  0  0  0  0  0  0  0  0  0
    1.1160  -18.7913   11.3738 H   0  0  0  0  0  0  0  0  0  0  0  0
    2.8718  -19.2297   13.1360 H   0  0  0  0  0  0  0  0  0  0  0  0
    3.6350  -20.4002   12.0699 H   0  0  0  0  0  0  0  0  0  0  0  0
    4.9720  -18.4110   11.9543 H   0  0  0  0  0  0  0  0  0  0  0  0
    3.5851  -17.3819   11.6642 H   0  0  0  0  0  0  0  0  0  0  0  0
    4.6006  -17.6636    9.5332 H   0  0  0  0  0  0  0  0  0  0  0  0
    4.7468  -19.4104    9.7753 H   0  0  0  0  0  0  0  0  0  0  0  0
    2.1031  -17.8826    9.4408 H   0  0  0  0  0  0  0  0  0  0  0  0
    2.8630  -18.9698    8.2744 H   0  0  0  0  0  0  0  0  0  0  0  0
  1  2  1  0
  2  3  1  0
  3  4  1  0
  4  5  2  0
  4  6  1  0
  6  7  1  0
  7  8  1  0
  8  9  2  0
  8 10  2  0
  8 11  1  0
 11 12  2  0
 12 13  1  0
 13 14  2  0
 14 15  1  0
  6 16  1  0
 16 17  1  0
 17 18  1  0
 18 19  1  0
 19 20  1  0
 20 21  1  0
 15 11  1  0
 21 16  1  0
  1 22  1  0
  1 23  1  0
  1 24  1  0
  2 25  1  0
  2 26  1  0
  6 27  1  0
  7 28  1  0
 12 29  1  0
 13 30  1  0
 15 31  1  0
 16 32  1  0
 17 33  1  0
 17 34  1  0
 18 35  1  0
 18 36  1  0
 19 37  1  0
 19 38  1  0
 20 39  1  0
 20 40  1  0
M  END
>  <Energy>  (488) 
-51.706814668195094

>  <compound_id>  (488) 
56102

>  <target_id>  (488) 
1

>  <reference_id>  (488) 
112

>  <inspiration_ids>  (488) 
[112, 81]

>  <energy_score>  (488) 
-40.582488788529616

>  <distance_score>  (488) 
14.87208476769014

>  <path>  (488) 
/opt/xchem-fragalysis-2/maxwin/BulkDock/SCRATCH/511016/C56102-P112/C56102-P112.minimised.mol

>  <scratch_subdir>  (488) 
/opt/xchem-fragalysis-2/maxwin/BulkDock/SCRATCH/511016/C56102-P112

>  <fragmenstein_runtime>  (488) 
28.790504217147827

>  <fragmenstein_outcome>  (488) 
too moved

>  <fragmenstein_mode>  (488) 
expansion

>  <fragmenstein_error>  (488) 


$$$$
C56102-P81
     RDKit          3D

 40 41  0  0  0  0  0  0  0  0999 V2000
   -6.4973  -18.1555    4.1601 C   0  0  0  0  0  0  0  0  0  0  0  0
   -5.8605  -16.8648    4.6363 C   0  0  0  0  0  0  0  0  0  0  0  0
   -6.5396  -16.3164    5.7787 O   0  0  0  0  0  0  0  0  0  0  0  0
   -7.6368  -15.5472    5.5153 C   0  0  0  0  0  0  0  0  0  0  0  0
   -8.1882  -15.4823    4.4233 O   0  0  0  0  0  0  0  0  0  0  0  0
   -8.0267  -14.6936    6.7199 C   0  0  0  0  0  0  0  0  0  0  0  0
   -7.7003  -15.3995    7.9981 N   0  0  0  0  0  0  0  0  0  0  0  0
   -8.7818  -16.4604    8.7728 S   0  0  0  0  0  0  0  0  0  0  0  0
   -9.8035  -15.6882    9.4431 O   0  0  0  0  0  0  0  0  0  0  0  0
   -8.0071  -17.4385    9.5008 O   0  0  0  0  0  0  0  0  0  0  0  0
   -9.7630  -17.4836    7.7297 C   0  0  0  0  0  0  0  0  0  0  0  0
   -9.7059  -18.0643    6.4784 C   0  0  0  0  0  0  0  0  0  0  0  0
  -10.8025  -18.9505    6.4179 C   0  0  0  0  0  0  0  0  0  0  0  0
  -11.5457  -18.9064    7.5197 N   0  0  0  0  0  0  0  0  0  0  0  0
  -10.9291  -17.9735    8.2660 N   0  0  0  0  0  0  0  0  0  0  0  0
   -7.3674  -13.2657    6.4255 C   0  0  0  0  0  0  0  0  0  0  0  0
   -5.8423  -13.1150    6.4710 C   0  0  0  0  0  0  0  0  0  0  0  0
   -5.3906  -11.7330    5.9539 C   0  0  0  0  0  0  0  0  0  0  0  0
   -6.1922  -10.5853    6.5371 C   0  0  0  0  0  0  0  0  0  0  0  0
   -7.6898  -10.9138    6.6076 C   0  0  0  0  0  0  0  0  0  0  0  0
   -7.9697  -12.2034    7.1801 O   0  0  0  0  0  0  0  0  0  0  0  0
   -6.5644  -18.8801    4.9755 H   0  0  0  0  0  0  0  0  0  0  0  0
   -5.9119  -18.5958    3.3477 H   0  0  0  0  0  0  0  0  0  0  0  0
   -7.5141  -17.9851    3.7949 H   0  0  0  0  0  0  0  0  0  0  0  0
   -4.8298  -17.0610    4.9498 H   0  0  0  0  0  0  0  0  0  0  0  0
   -5.8121  -16.1252    3.8284 H   0  0  0  0  0  0  0  0  0  0  0  0
   -9.1157  -14.5603    6.7030 H   0  0  0  0  0  0  0  0  0  0  0  0
   -6.7270  -15.6937    8.1493 H   0  0  0  0  0  0  0  0  0  0  0  0
   -8.9386  -17.9408    5.7332 H   0  0  0  0  0  0  0  0  0  0  0  0
  -11.0847  -19.6225    5.6170 H   0  0  0  0  0  0  0  0  0  0  0  0
  -11.3379  -17.7061    9.1541 H   0  0  0  0  0  0  0  0  0  0  0  0
   -7.6523  -13.0668    5.3801 H   0  0  0  0  0  0  0  0  0  0  0  0
   -5.3928  -13.8894    5.8419 H   0  0  0  0  0  0  0  0  0  0  0  0
   -5.4837  -13.2618    7.4879 H   0  0  0  0  0  0  0  0  0  0  0  0
   -5.5241  -11.7255    4.8641 H   0  0  0  0  0  0  0  0  0  0  0  0
   -4.3294  -11.5571    6.1289 H   0  0  0  0  0  0  0  0  0  0  0  0
   -6.0427   -9.6775    5.9414 H   0  0  0  0  0  0  0  0  0  0  0  0
   -5.8108  -10.3561    7.5272 H   0  0  0  0  0  0  0  0  0  0  0  0
   -8.2001  -10.1644    7.2215 H   0  0  0  0  0  0  0  0  0  0  0  0
   -8.1393  -10.8677    5.6083 H   0  0  0  0  0  0  0  0  0  0  0  0
  1  2  1  0
  2  3  1  0
  3  4  1  0
  4  5  2  0
  4  6  1  0
  6  7  1  0
  7  8  1  0
  8  9  2  0
  8 10  2  0
  8 11  1  0
 11 12  2  0
 12 13  1  0
 13 14  2  0
 14 15  1  0
  6 16  1  0
 16 17  1  0
 17 18  1  0
 18 19  1  0
 19 20  1  0
 20 21  1  0
 15 11  1  0
 21 16  1  0
  1 22  1  0
  1 23  1  0
  1 24  1  0
  2 25  1  0
  2 26  1  0
  6 27  1  0
  7 28  1  0
 12 29  1  0
 13 30  1  0
 15 31  1  0
 16 32  1  0
 17 33  1  0
 17 34  1  0
 18 35  1  0
 18 36  1  0
 19 37  1  0
 19 38  1  0
 20 39  1  0
 20 40  1  0
M  END
>  <Energy>  (489) 
-42.029541666602604

>  <compound_id>  (489) 
56102

>  <target_id>  (489) 
1

>  <reference_id>  (489) 
81

>  <inspiration_ids>  (489) 
[112, 81]

>  <energy_score>  (489) 
-30.905215786935287

>  <distance_score>  (489) 
16.835312576493656

>  <path>  (489) 
/opt/xchem-fragalysis-2/maxwin/BulkDock/SCRATCH/511016/C56102-P81/C56102-P81.minimised.mol

>  <scratch_subdir>  (489) 
/opt/xchem-fragalysis-2/maxwin/BulkDock/SCRATCH/511016/C56102-P81

>  <fragmenstein_runtime>  (489) 
26.450840711593628

>  <fragmenstein_outcome>  (489) 
too moved

>  <fragmenstein_mode>  (489) 
expansion

>  <fragmenstein_error>  (489) 


$$$$
C56105-P112
     RDKit          3D

 35 37  0  0  0  0  0  0  0  0999 V2000
   -2.6563   -9.4317    9.6762 O   0  0  0  0  0  0  0  0  0  0  0  0
   -3.2123   -9.2806   10.7602 C   0  0  0  0  0  0  0  0  0  0  0  0
   -4.2374  -10.1268   11.1926 O   0  0  0  0  0  0  0  0  0  0  0  0
   -4.6480  -11.1590   10.2327 C   0  0  0  0  0  0  0  0  0  0  0  0
   -5.4518  -12.3094   10.8551 C   0  0  0  0  0  0  0  0  0  0  0  0
   -5.4032  -13.6807   10.6130 C   0  0  0  0  0  0  0  0  0  0  0  0
   -6.3721  -14.2632   11.4540 C   0  0  0  0  0  0  0  0  0  0  0  0
   -7.0211  -13.3418   12.1662 N   0  0  0  0  0  0  0  0  0  0  0  0
   -6.4584  -12.1739   11.7786 N   0  0  0  0  0  0  0  0  0  0  0  0
   -2.9058   -8.0537   11.7145 C   0  0  0  0  0  0  0  0  0  0  0  0
   -1.4550   -7.4818   11.5411 C   0  0  0  0  0  0  0  0  0  0  0  0
   -0.4226   -7.6126   10.6300 C   0  0  0  0  0  0  0  0  0  0  0  0
    0.5547   -6.6715   11.0260 C   0  0  0  0  0  0  0  0  0  0  0  0
    0.1880   -6.0126   12.1250 N   0  0  0  0  0  0  0  0  0  0  0  0
   -1.0519   -6.5323   12.4599 O   0  0  0  0  0  0  0  0  0  0  0  0
   -3.1568   -8.4050   13.1992 C   0  0  0  0  0  0  0  0  0  0  0  0
   -3.5116   -7.2097   14.0767 C   0  0  0  0  0  0  0  0  0  0  0  0
   -4.5648   -6.4553   13.4918 O   0  0  0  0  0  0  0  0  0  0  0  0
   -4.1655   -5.8765   12.2541 C   0  0  0  0  0  0  0  0  0  0  0  0
   -3.9141   -6.9731   11.2325 C   0  0  0  0  0  0  0  0  0  0  0  0
   -5.2679  -10.6744    9.4704 H   0  0  0  0  0  0  0  0  0  0  0  0
   -3.7592  -11.5874    9.7586 H   0  0  0  0  0  0  0  0  0  0  0  0
   -4.7346  -14.1872    9.9296 H   0  0  0  0  0  0  0  0  0  0  0  0
   -6.6294  -15.3077   11.5726 H   0  0  0  0  0  0  0  0  0  0  0  0
   -6.8041  -11.3156   12.1948 H   0  0  0  0  0  0  0  0  0  0  0  0
   -0.3900   -8.2685    9.7723 H   0  0  0  0  0  0  0  0  0  0  0  0
    1.5086   -6.4495   10.5686 H   0  0  0  0  0  0  0  0  0  0  0  0
   -4.0052   -9.0925   13.2782 H   0  0  0  0  0  0  0  0  0  0  0  0
   -2.2909   -8.9155   13.6313 H   0  0  0  0  0  0  0  0  0  0  0  0
   -3.8636   -7.5683   15.0502 H   0  0  0  0  0  0  0  0  0  0  0  0
   -2.6543   -6.5602   14.2779 H   0  0  0  0  0  0  0  0  0  0  0  0
   -3.2929   -5.2314   12.4016 H   0  0  0  0  0  0  0  0  0  0  0  0
   -4.9835   -5.2352   11.9095 H   0  0  0  0  0  0  0  0  0  0  0  0
   -3.5905   -6.5280   10.2829 H   0  0  0  0  0  0  0  0  0  0  0  0
   -4.8816   -7.4551   11.0329 H   0  0  0  0  0  0  0  0  0  0  0  0
  1  2  2  0
  2  3  1  0
  3  4  1  0
  4  5  1  0
  5  6  2  0
  6  7  1  0
  7  8  2  0
  8  9  1  0
  2 10  1  0
 10 11  1  0
 11 12  2  0
 12 13  1  0
 13 14  2  0
 14 15  1  0
 10 16  1  0
 16 17  1  0
 17 18  1  0
 18 19  1  0
 19 20  1  0
  9  5  1  0
 20 10  1  0
 15 11  1  0
  4 21  1  0
  4 22  1  0
  6 23  1  0
  7 24  1  0
  9 25  1  0
 12 26  1  0
 13 27  1  0
 16 28  1  0
 16 29  1  0
 17 30  1  0
 17 31  1  0
 19 32  1  0
 19 33  1  0
 20 34  1  0
 20 35  1  0
M  END
>  <Energy>  (490) 
5.4093923287300676

>  <compound_id>  (490) 
56105

>  <target_id>  (490) 
1

>  <reference_id>  (490) 
112

>  <inspiration_ids>  (490) 
[112, 81]

>  <energy_score>  (490) 
-24.69915946716091

>  <distance_score>  (490) 
14.423554125790444

>  <path>  (490) 
/opt/xchem-fragalysis-2/maxwin/BulkDock/SCRATCH/511016/C56105-P112/C56105-P112.minimised.mol

>  <scratch_subdir>  (490) 
/opt/xchem-fragalysis-2/maxwin/BulkDock/SCRATCH/511016/C56105-P112

>  <fragmenstein_runtime>  (490) 
11.470173597335815

>  <fragmenstein_outcome>  (490) 
too moved

>  <fragmenstein_mode>  (490) 
expansion

>  <fragmenstein_error>  (490) 


$$$$
C56105-P81
     RDKit          3D

 35 37  0  0  0  0  0  0  0  0999 V2000
   -2.6435   -9.4341    9.6111 O   0  0  0  0  0  0  0  0  0  0  0  0
   -3.2318   -9.2616   10.6744 C   0  0  0  0  0  0  0  0  0  0  0  0
   -4.2655  -10.1034   11.0956 O   0  0  0  0  0  0  0  0  0  0  0  0
   -4.5984  -11.1959   10.1709 C   0  0  0  0  0  0  0  0  0  0  0  0
   -5.3923  -12.3423   10.8153 C   0  0  0  0  0  0  0  0  0  0  0  0
   -5.2521  -13.7235   10.6972 C   0  0  0  0  0  0  0  0  0  0  0  0
   -6.2827  -14.2929   11.4719 C   0  0  0  0  0  0  0  0  0  0  0  0
   -7.0571  -13.3560   12.0202 N   0  0  0  0  0  0  0  0  0  0  0  0
   -6.5017  -12.1934   11.6099 N   0  0  0  0  0  0  0  0  0  0  0  0
   -2.9574   -8.0138   11.6046 C   0  0  0  0  0  0  0  0  0  0  0  0
   -1.4852   -7.4795   11.5207 C   0  0  0  0  0  0  0  0  0  0  0  0
   -0.4280   -7.5872   10.6357 C   0  0  0  0  0  0  0  0  0  0  0  0
    0.5458   -6.6727   11.0959 C   0  0  0  0  0  0  0  0  0  0  0  0
    0.1569   -6.0546   12.2108 N   0  0  0  0  0  0  0  0  0  0  0  0
   -1.1024   -6.5684   12.4889 O   0  0  0  0  0  0  0  0  0  0  0  0
   -3.8760   -6.9177   10.9973 C   0  0  0  0  0  0  0  0  0  0  0  0
   -4.0093   -5.6771   11.8762 C   0  0  0  0  0  0  0  0  0  0  0  0
   -3.9738   -5.9486   13.2732 O   0  0  0  0  0  0  0  0  0  0  0  0
   -4.3710   -7.2647   13.6085 C   0  0  0  0  0  0  0  0  0  0  0  0
   -3.3592   -8.2750   13.0783 C   0  0  0  0  0  0  0  0  0  0  0  0
   -3.6773  -11.6147    9.7521 H   0  0  0  0  0  0  0  0  0  0  0  0
   -5.2009  -10.7694    9.3612 H   0  0  0  0  0  0  0  0  0  0  0  0
   -4.4900  -14.2456   10.1337 H   0  0  0  0  0  0  0  0  0  0  0  0
   -6.5006  -15.3384   11.6505 H   0  0  0  0  0  0  0  0  0  0  0  0
   -6.9334  -11.3273   11.9128 H   0  0  0  0  0  0  0  0  0  0  0  0
   -0.3811   -8.2059    9.7520 H   0  0  0  0  0  0  0  0  0  0  0  0
    1.5135   -6.4418   10.6735 H   0  0  0  0  0  0  0  0  0  0  0  0
   -4.8828   -7.3371   10.8558 H   0  0  0  0  0  0  0  0  0  0  0  0
   -3.5443   -6.6212    9.9934 H   0  0  0  0  0  0  0  0  0  0  0  0
   -3.2023   -4.9681   11.6627 H   0  0  0  0  0  0  0  0  0  0  0  0
   -4.9482   -5.1597   11.6496 H   0  0  0  0  0  0  0  0  0  0  0  0
   -5.3796   -7.4608   13.2249 H   0  0  0  0  0  0  0  0  0  0  0  0
   -4.4247   -7.3368   14.6999 H   0  0  0  0  0  0  0  0  0  0  0  0
   -3.8035   -9.2578   13.2280 H   0  0  0  0  0  0  0  0  0  0  0  0
   -2.4731   -8.2567   13.7249 H   0  0  0  0  0  0  0  0  0  0  0  0
  1  2  2  0
  2  3  1  0
  3  4  1  0
  4  5  1  0
  5  6  2  0
  6  7  1  0
  7  8  2  0
  8  9  1  0
  2 10  1  0
 10 11  1  0
 11 12  2  0
 12 13  1  0
 13 14  2  0
 14 15  1  0
 10 16  1  0
 16 17  1  0
 17 18  1  0
 18 19  1  0
 19 20  1  0
  9  5  1  0
 20 10  1  0
 15 11  1  0
  4 21  1  0
  4 22  1  0
  6 23  1  0
  7 24  1  0
  9 25  1  0
 12 26  1  0
 13 27  1  0
 16 28  1  0
 16 29  1  0
 17 30  1  0
 17 31  1  0
 19 32  1  0
 19 33  1  0
 20 34  1  0
 20 35  1  0
M  END
>  <Energy>  (491) 
12.938031779807702

>  <compound_id>  (491) 
56105

>  <target_id>  (491) 
1

>  <reference_id>  (491) 
81

>  <inspiration_ids>  (491) 
[112, 81]

>  <energy_score>  (491) 
-17.17052001608417

>  <distance_score>  (491) 
14.439048670460638

>  <path>  (491) 
/opt/xchem-fragalysis-2/maxwin/BulkDock/SCRATCH/511016/C56105-P81/C56105-P81.minimised.mol

>  <scratch_subdir>  (491) 
/opt/xchem-fragalysis-2/maxwin/BulkDock/SCRATCH/511016/C56105-P81

>  <fragmenstein_runtime>  (491) 
15.3446204662323

>  <fragmenstein_outcome>  (491) 
too moved

>  <fragmenstein_mode>  (491) 
expansion

>  <fragmenstein_error>  (491) 


$$$$
C56107-P112
     RDKit          3D

 46 47  0  0  0  0  0  0  0  0999 V2000
    4.6121  -19.8102   11.4869 C   0  0  0  0  0  0  0  0  0  0  0  0
    4.6449  -20.2255   10.0112 C   0  0  0  0  0  0  0  0  0  0  0  0
    3.2296  -20.1229    9.3380 C   0  0  0  0  0  0  0  0  0  0  0  0
    2.1628  -20.9698   10.0965 C   0  0  0  0  0  0  0  0  0  0  0  0
    0.8331  -21.1496    9.5080 N   0  0  0  0  0  0  0  0  0  0  0  0
   -0.0613  -22.3059    9.5003 C   0  0  0  0  0  0  0  0  0  0  0  0
    0.1034  -23.4241    9.9057 O   0  0  0  0  0  0  0  0  0  0  0  0
   -1.4379  -21.9802    8.8164 C   0  0  0  0  0  0  0  0  0  0  0  0
   -2.6705  -22.5082    9.5544 C   0  0  0  0  0  0  0  0  0  0  0  0
   -2.9905  -23.7502   10.0772 C   0  0  0  0  0  0  0  0  0  0  0  0
   -4.3145  -23.6419   10.5467 C   0  0  0  0  0  0  0  0  0  0  0  0
   -4.8301  -22.4350   10.3133 N   0  0  0  0  0  0  0  0  0  0  0  0
   -3.7946  -21.7430    9.7970 N   0  0  0  0  0  0  0  0  0  0  0  0
    5.7721  -19.5253    9.3494 N   0  0  0  0  0  0  0  0  0  0  0  0
    6.1348  -18.1229    9.3231 C   0  0  0  0  0  0  0  0  0  0  0  0
    5.5715  -17.1657    9.7628 O   0  0  0  0  0  0  0  0  0  0  0  0
    7.5736  -17.9182    8.6792 C   0  0  0  0  0  0  0  0  0  0  0  0
    7.8042  -16.6165    7.8746 C   0  0  0  0  0  0  0  0  0  0  0  0
    8.1444  -15.3535    8.6748 C   0  0  0  0  0  0  0  0  0  0  0  0
    8.9229  -15.6003    9.8468 O   0  0  0  0  0  0  0  0  0  0  0  0
    9.6378  -16.8282    9.8079 C   0  0  0  0  0  0  0  0  0  0  0  0
    8.6877  -18.0456    9.7441 C   0  0  0  0  0  0  0  0  0  0  0  0
    4.2269  -18.7914   11.6029 H   0  0  0  0  0  0  0  0  0  0  0  0
    5.6177  -19.8360   11.9223 H   0  0  0  0  0  0  0  0  0  0  0  0
    3.9873  -20.4823   12.0821 H   0  0  0  0  0  0  0  0  0  0  0  0
    4.9369  -21.2830    9.9756 H   0  0  0  0  0  0  0  0  0  0  0  0
    2.9074  -19.0758    9.2947 H   0  0  0  0  0  0  0  0  0  0  0  0
    3.3017  -20.4727    8.3013 H   0  0  0  0  0  0  0  0  0  0  0  0
    2.5583  -21.9755   10.2792 H   0  0  0  0  0  0  0  0  0  0  0  0
    1.9720  -20.5167   11.0751 H   0  0  0  0  0  0  0  0  0  0  0  0
    0.3304  -20.3375    9.1554 H   0  0  0  0  0  0  0  0  0  0  0  0
   -1.5470  -20.9090    8.6338 H   0  0  0  0  0  0  0  0  0  0  0  0
   -1.4072  -22.4577    7.8285 H   0  0  0  0  0  0  0  0  0  0  0  0
   -2.3489  -24.6202   10.1085 H   0  0  0  0  0  0  0  0  0  0  0  0
   -4.9237  -24.3925   11.0316 H   0  0  0  0  0  0  0  0  0  0  0  0
   -3.9354  -20.7501    9.6222 H   0  0  0  0  0  0  0  0  0  0  0  0
    6.5273  -20.0697    8.9514 H   0  0  0  0  0  0  0  0  0  0  0  0
    7.6981  -18.7367    7.9563 H   0  0  0  0  0  0  0  0  0  0  0  0
    6.9919  -16.4392    7.1684 H   0  0  0  0  0  0  0  0  0  0  0  0
    8.6722  -16.8116    7.2263 H   0  0  0  0  0  0  0  0  0  0  0  0
    7.2412  -14.8346    9.0015 H   0  0  0  0  0  0  0  0  0  0  0  0
    8.6970  -14.6514    8.0408 H   0  0  0  0  0  0  0  0  0  0  0  0
   10.2466  -16.8930   10.7158 H   0  0  0  0  0  0  0  0  0  0  0  0
   10.3303  -16.8228    8.9576 H   0  0  0  0  0  0  0  0  0  0  0  0
    8.2416  -18.2009   10.7332 H   0  0  0  0  0  0  0  0  0  0  0  0
    9.2860  -18.9427    9.5433 H   0  0  0  0  0  0  0  0  0  0  0  0
  1  2  1  0
  2  3  1  0
  3  4  1  0
  4  5  1  0
  5  6  1  0
  6  7  2  0
  6  8  1  0
  8  9  1  0
  9 10  2  0
 10 11  1  0
 11 12  2  0
 12 13  1  0
  2 14  1  0
 14 15  1  0
 15 16  2  0
 15 17  1  0
 17 18  1  0
 18 19  1  0
 19 20  1  0
 20 21  1  0
 21 22  1  0
 13  9  1  0
 22 17  1  0
  1 23  1  0
  1 24  1  0
  1 25  1  0
  2 26  1  0
  3 27  1  0
  3 28  1  0
  4 29  1  0
  4 30  1  0
  5 31  1  0
  8 32  1  0
  8 33  1  0
 10 34  1  0
 11 35  1  0
 13 36  1  0
 14 37  1  0
 17 38  1  0
 18 39  1  0
 18 40  1  0
 19 41  1  0
 19 42  1  0
 21 43  1  0
 21 44  1  0
 22 45  1  0
 22 46  1  0
M  END
>  <Energy>  (492) 
26.927718106303644

>  <compound_id>  (492) 
56107

>  <target_id>  (492) 
1

>  <reference_id>  (492) 
112

>  <inspiration_ids>  (492) 
[112, 81]

>  <energy_score>  (492) 
-7.908095986186986

>  <distance_score>  (492) 
12.974902084053365

>  <path>  (492) 
/opt/xchem-fragalysis-2/maxwin/BulkDock/SCRATCH/511016/C56107-P112/C56107-P112.minimised.mol

>  <scratch_subdir>  (492) 
/opt/xchem-fragalysis-2/maxwin/BulkDock/SCRATCH/511016/C56107-P112

>  <fragmenstein_runtime>  (492) 
47.851104974746704

>  <fragmenstein_outcome>  (492) 
too moved

>  <fragmenstein_mode>  (492) 
expansion

>  <fragmenstein_error>  (492) 


$$$$
C56107-P81
     RDKit          3D

 46 47  0  0  0  0  0  0  0  0999 V2000
    4.3478  -20.1907   12.4709 C   0  0  0  0  0  0  0  0  0  0  0  0
    4.5438  -20.2565   13.9861 C   0  0  0  0  0  0  0  0  0  0  0  0
    3.2035  -20.5841   14.7122 C   0  0  0  0  0  0  0  0  0  0  0  0
    2.8607  -22.0930   14.6817 C   0  0  0  0  0  0  0  0  0  0  0  0
    1.4630  -22.4441   14.9317 N   0  0  0  0  0  0  0  0  0  0  0  0
    0.7730  -23.7293   14.8609 C   0  0  0  0  0  0  0  0  0  0  0  0
    1.1963  -24.8335   14.6569 O   0  0  0  0  0  0  0  0  0  0  0  0
   -0.7526  -23.5514   15.1035 C   0  0  0  0  0  0  0  0  0  0  0  0
   -1.6097  -24.4361   14.2357 C   0  0  0  0  0  0  0  0  0  0  0  0
   -2.2611  -24.1991   13.0427 C   0  0  0  0  0  0  0  0  0  0  0  0
   -2.9622  -25.3857   12.7577 C   0  0  0  0  0  0  0  0  0  0  0  0
   -2.7927  -26.3132   13.7029 N   0  0  0  0  0  0  0  0  0  0  0  0
   -1.9240  -25.7319   14.5538 N   0  0  0  0  0  0  0  0  0  0  0  0
    5.1872  -19.0119   14.4397 N   0  0  0  0  0  0  0  0  0  0  0  0
    6.5629  -18.5515   14.3197 C   0  0  0  0  0  0  0  0  0  0  0  0
    7.5355  -19.1031   13.8914 O   0  0  0  0  0  0  0  0  0  0  0  0
    6.7420  -17.1415   14.9656 C   0  0  0  0  0  0  0  0  0  0  0  0
    5.4148  -15.9105   14.3531 C   0  0  0  0  0  0  0  0  0  0  0  0
    6.2193  -13.9877   13.7610 C   0  0  0  0  0  0  0  0  0  0  0  0
    7.8914  -13.7512   14.2853 O   0  0  0  0  0  0  0  0  0  0  0  0
    8.8713  -14.9217   14.7726 C   0  0  0  0  0  0  0  0  0  0  0  0
    8.4226  -16.5888   15.0108 C   0  0  0  0  0  0  0  0  0  0  0  0
    3.6733  -19.3710   12.1984 H   0  0  0  0  0  0  0  0  0  0  0  0
    3.9304  -21.1221   12.0775 H   0  0  0  0  0  0  0  0  0  0  0  0
    5.3011  -20.0117   11.9616 H   0  0  0  0  0  0  0  0  0  0  0  0
    5.2705  -21.0492   14.2016 H   0  0  0  0  0  0  0  0  0  0  0  0
    3.2555  -20.2682   15.7605 H   0  0  0  0  0  0  0  0  0  0  0  0
    2.3923  -20.0019   14.2595 H   0  0  0  0  0  0  0  0  0  0  0  0
    3.1083  -22.5320   13.7099 H   0  0  0  0  0  0  0  0  0  0  0  0
    3.4623  -22.6278   15.4251 H   0  0  0  0  0  0  0  0  0  0  0  0
    0.7982  -21.7243   15.2059 H   0  0  0  0  0  0  0  0  0  0  0  0
   -0.9408  -23.7674   16.1618 H   0  0  0  0  0  0  0  0  0  0  0  0
   -1.0577  -22.5190   14.9244 H   0  0  0  0  0  0  0  0  0  0  0  0
   -2.2600  -23.2811   12.4696 H   0  0  0  0  0  0  0  0  0  0  0  0
   -3.6062  -25.5954   11.9144 H   0  0  0  0  0  0  0  0  0  0  0  0
   -1.5868  -26.2774   15.3391 H   0  0  0  0  0  0  0  0  0  0  0  0
    4.6087  -18.2470   14.7721 H   0  0  0  0  0  0  0  0  0  0  0  0
    6.5539  -17.2234   16.0184 H   0  0  0  0  0  0  0  0  0  0  0  0
    4.8680  -16.4638   13.5805 H   0  0  0  0  0  0  0  0  0  0  0  0
    5.0196  -16.0197   15.3893 H   0  0  0  0  0  0  0  0  0  0  0  0
    6.3874  -13.9372   12.6611 H   0  0  0  0  0  0  0  0  0  0  0  0
    5.7435  -13.0322   14.0131 H   0  0  0  0  0  0  0  0  0  0  0  0
    9.4312  -14.5774   15.6513 H   0  0  0  0  0  0  0  0  0  0  0  0
    9.6711  -14.9141   14.0173 H   0  0  0  0  0  0  0  0  0  0  0  0
    8.9609  -17.1440   14.2272 H   0  0  0  0  0  0  0  0  0  0  0  0
    8.9046  -16.9646   15.9214 H   0  0  0  0  0  0  0  0  0  0  0  0
  1  2  1  0
  2  3  1  0
  3  4  1  0
  4  5  1  0
  5  6  1  0
  6  7  2  0
  6  8  1  0
  8  9  1  0
  9 10  2  0
 10 11  1  0
 11 12  2  0
 12 13  1  0
  2 14  1  0
 14 15  1  0
 15 16  2  0
 15 17  1  0
 17 18  1  0
 18 19  1  0
 19 20  1  0
 20 21  1  0
 21 22  1  0
 13  9  1  0
 22 17  1  0
  1 23  1  0
  1 24  1  0
  1 25  1  0
  2 26  1  0
  3 27  1  0
  3 28  1  0
  4 29  1  0
  4 30  1  0
  5 31  1  0
  8 32  1  0
  8 33  1  0
 10 34  1  0
 11 35  1  0
 13 36  1  0
 14 37  1  0
 17 38  1  0
 18 39  1  0
 18 40  1  0
 19 41  1  0
 19 42  1  0
 21 43  1  0
 21 44  1  0
 22 45  1  0
 22 46  1  0
M  END
>  <Energy>  (493) 
248.81726209640857

>  <compound_id>  (493) 
56107

>  <target_id>  (493) 
1

>  <reference_id>  (493) 
81

>  <inspiration_ids>  (493) 
[112, 81]

>  <energy_score>  (493) 
213.9814480039143

>  <distance_score>  (493) 
12.297163510628595

>  <path>  (493) 
/opt/xchem-fragalysis-2/maxwin/BulkDock/SCRATCH/511016/C56107-P81/C56107-P81.minimised.mol

>  <scratch_subdir>  (493) 
/opt/xchem-fragalysis-2/maxwin/BulkDock/SCRATCH/511016/C56107-P81

>  <fragmenstein_runtime>  (493) 
25.77830481529236

>  <fragmenstein_outcome>  (493) 
too moved

>  <fragmenstein_mode>  (493) 
expansion

>  <fragmenstein_error>  (493) 


$$$$
C58604-P112
     RDKit          3D

 42 43  0  0  0  0  0  0  0  0999 V2000
    4.8518  -11.6882   19.3431 C   0  0  0  0  0  0  0  0  0  0  0  0
    3.9660  -11.5795   18.1499 O   0  0  0  0  0  0  0  0  0  0  0  0
    3.2163  -12.7442   17.7157 C   0  0  0  0  0  0  0  0  0  0  0  0
    3.3084  -13.8394   18.2794 O   0  0  0  0  0  0  0  0  0  0  0  0
    2.1523  -12.2312   15.9741 C   0  0  0  0  0  0  0  0  0  0  0  0
    2.1372  -12.5930   14.6356 N   0  0  0  0  0  0  0  0  0  0  0  0
    0.7459  -12.4812   13.3575 C   0  0  0  0  0  0  0  0  0  0  0  0
   -0.3460  -11.9573   13.5088 O   0  0  0  0  0  0  0  0  0  0  0  0
    0.7701  -13.2627   11.8815 C   0  0  0  0  0  0  0  0  0  0  0  0
   -0.5456  -14.5803   11.5140 C   0  0  0  0  0  0  0  0  0  0  0  0
   -2.1938  -14.9893   10.7771 C   0  0  0  0  0  0  0  0  0  0  0  0
   -2.7712  -15.7574    9.6886 C   0  0  0  0  0  0  0  0  0  0  0  0
   -4.2036  -15.6691    9.6982 C   0  0  0  0  0  0  0  0  0  0  0  0
   -4.6621  -15.1235   10.8157 N   0  0  0  0  0  0  0  0  0  0  0  0
   -3.5239  -14.8549   11.5269 N   0  0  0  0  0  0  0  0  0  0  0  0
    3.6651  -11.0226   14.7517 C   0  0  0  0  0  0  0  0  0  0  0  0
    3.9201   -9.3973   15.5311 C   0  0  0  0  0  0  0  0  0  0  0  0
    4.9316   -8.3876   14.7959 C   0  0  0  0  0  0  0  0  0  0  0  0
    6.2454   -8.8488   14.6607 O   0  0  0  0  0  0  0  0  0  0  0  0
    6.3387   -9.8535   13.7067 C   0  0  0  0  0  0  0  0  0  0  0  0
    5.0975  -10.7498   13.5878 C   0  0  0  0  0  0  0  0  0  0  0  0
    4.7614  -12.6487   19.8544 H   0  0  0  0  0  0  0  0  0  0  0  0
    5.9089  -11.5874   19.0950 H   0  0  0  0  0  0  0  0  0  0  0  0
    4.5903  -10.8682   20.0194 H   0  0  0  0  0  0  0  0  0  0  0  0
    1.5235  -13.1505   16.3298 H   0  0  0  0  0  0  0  0  0  0  0  0
    3.0945  -11.5584   16.2601 H   0  0  0  0  0  0  0  0  0  0  0  0
    1.5075  -14.0016   12.0097 H   0  0  0  0  0  0  0  0  0  0  0  0
    0.8089  -12.4821   11.1693 H   0  0  0  0  0  0  0  0  0  0  0  0
   -0.7792  -14.5724   12.5397 H   0  0  0  0  0  0  0  0  0  0  0  0
    0.0323  -15.4814   11.2595 H   0  0  0  0  0  0  0  0  0  0  0  0
   -2.2926  -16.4280    8.9917 H   0  0  0  0  0  0  0  0  0  0  0  0
   -4.9025  -16.0785    8.9816 H   0  0  0  0  0  0  0  0  0  0  0  0
   -3.5568  -14.4473   12.4618 H   0  0  0  0  0  0  0  0  0  0  0  0
    3.1369  -10.4365   13.9982 H   0  0  0  0  0  0  0  0  0  0  0  0
    3.1326   -8.6691   15.5231 H   0  0  0  0  0  0  0  0  0  0  0  0
    4.0370   -9.4913   16.6124 H   0  0  0  0  0  0  0  0  0  0  0  0
    4.9380   -7.4430   15.3544 H   0  0  0  0  0  0  0  0  0  0  0  0
    4.6305   -8.0799   13.7924 H   0  0  0  0  0  0  0  0  0  0  0  0
    6.5245   -9.3876   12.7300 H   0  0  0  0  0  0  0  0  0  0  0  0
    7.2441  -10.4385   13.8997 H   0  0  0  0  0  0  0  0  0  0  0  0
    5.4941  -11.6859   13.1984 H   0  0  0  0  0  0  0  0  0  0  0  0
    4.6465  -10.1330   12.7883 H   0  0  0  0  0  0  0  0  0  0  0  0
  1  2  1  0
  2  3  1  0
  3  4  2  0
  3  5  1  0
  5  6  1  0
  6  7  1  0
  7  8  2  0
  7  9  1  0
  9 10  1  0
 10 11  1  0
 11 12  2  0
 12 13  1  0
 13 14  2  0
 14 15  1  0
  6 16  1  0
 16 17  1  0
 17 18  1  0
 18 19  1  0
 19 20  1  0
 20 21  1  0
 15 11  1  0
 21 16  1  0
  1 22  1  0
  1 23  1  0
  1 24  1  0
  5 25  1  0
  5 26  1  0
  9 27  1  0
  9 28  1  0
 10 29  1  0
 10 30  1  0
 12 31  1  0
 13 32  1  0
 15 33  1  0
 16 34  1  0
 17 35  1  0
 17 36  1  0
 18 37  1  0
 18 38  1  0
 20 39  1  0
 20 40  1  0
 21 41  1  0
 21 42  1  0
M  END
>  <Energy>  (494) 
785.41306733044371

>  <compound_id>  (494) 
58604

>  <target_id>  (494) 
1

>  <reference_id>  (494) 
112

>  <inspiration_ids>  (494) 
[112, 81]

>  <energy_score>  (494) 
708.7018670430799

>  <distance_score>  (494) 
13.002625888444255

>  <path>  (494) 
/opt/xchem-fragalysis-2/maxwin/BulkDock/SCRATCH/511016/C58604-P112/C58604-P112.minimised.mol

>  <scratch_subdir>  (494) 
/opt/xchem-fragalysis-2/maxwin/BulkDock/SCRATCH/511016/C58604-P112

>  <fragmenstein_runtime>  (494) 
15.587538480758667

>  <fragmenstein_outcome>  (494) 
too moved

>  <fragmenstein_mode>  (494) 
expansion

>  <fragmenstein_error>  (494) 


$$$$
C58604-P81
     RDKit          3D

 42 43  0  0  0  0  0  0  0  0999 V2000
    5.9587  -13.0925   21.8383 C   0  0  0  0  0  0  0  0  0  0  0  0
    5.3061  -13.1828   20.5521 O   0  0  0  0  0  0  0  0  0  0  0  0
    5.9599  -13.9349   19.5191 C   0  0  0  0  0  0  0  0  0  0  0  0
    7.1535  -14.1339   19.7637 O   0  0  0  0  0  0  0  0  0  0  0  0
    4.8706  -14.3774   17.8735 C   0  0  0  0  0  0  0  0  0  0  0  0
    3.8432  -14.8509   18.1806 N   0  0  0  0  0  0  0  0  0  0  0  0
    2.6534  -16.0895   17.3234 C   0  0  0  0  0  0  0  0  0  0  0  0
    3.0445  -16.3186   16.1560 O   0  0  0  0  0  0  0  0  0  0  0  0
    1.1852  -17.5203   17.7704 C   0  0  0  0  0  0  0  0  0  0  0  0
    0.0053  -18.4992   18.7292 C   0  0  0  0  0  0  0  0  0  0  0  0
   -0.9038  -19.5805   18.1283 C   0  0  0  0  0  0  0  0  0  0  0  0
   -0.6921  -20.9502   18.0420 C   0  0  0  0  0  0  0  0  0  0  0  0
   -1.9280  -21.5141   17.6759 C   0  0  0  0  0  0  0  0  0  0  0  0
   -2.8790  -20.5916   17.5566 N   0  0  0  0  0  0  0  0  0  0  0  0
   -2.2401  -19.4360   17.8057 N   0  0  0  0  0  0  0  0  0  0  0  0
    3.8768  -12.7290   18.2342 C   0  0  0  0  0  0  0  0  0  0  0  0
    5.8226  -11.7393   18.5403 C   0  0  0  0  0  0  0  0  0  0  0  0
    7.4514  -11.0987   17.3046 C   0  0  0  0  0  0  0  0  0  0  0  0
    6.9472  -10.1458   15.4823 O   0  0  0  0  0  0  0  0  0  0  0  0
    5.0274  -10.5359   15.0112 C   0  0  0  0  0  0  0  0  0  0  0  0
    3.9152  -11.4474   16.5405 C   0  0  0  0  0  0  0  0  0  0  0  0
    5.7397  -12.1034   22.2492 H   0  0  0  0  0  0  0  0  0  0  0  0
    5.5261  -13.8432   22.5051 H   0  0  0  0  0  0  0  0  0  0  0  0
    7.0413  -13.2282   21.7973 H   0  0  0  0  0  0  0  0  0  0  0  0
    5.1882  -15.3060   18.4207 H   0  0  0  0  0  0  0  0  0  0  0  0
    4.7413  -15.0770   17.0920 H   0  0  0  0  0  0  0  0  0  0  0  0
    1.2876  -17.9900   16.7545 H   0  0  0  0  0  0  0  0  0  0  0  0
    1.8857  -18.3798   17.8815 H   0  0  0  0  0  0  0  0  0  0  0  0
    0.6075  -19.1189   19.4190 H   0  0  0  0  0  0  0  0  0  0  0  0
   -0.5885  -17.8802   19.4161 H   0  0  0  0  0  0  0  0  0  0  0  0
    0.2296  -21.4748   18.2569 H   0  0  0  0  0  0  0  0  0  0  0  0
   -2.1606  -22.5560   17.5140 H   0  0  0  0  0  0  0  0  0  0  0  0
   -2.7974  -18.5932   17.7558 H   0  0  0  0  0  0  0  0  0  0  0  0
    4.0068  -12.3911   19.2199 H   0  0  0  0  0  0  0  0  0  0  0  0
    5.4720  -10.7898   19.0395 H   0  0  0  0  0  0  0  0  0  0  0  0
    6.4581  -12.0123   19.3748 H   0  0  0  0  0  0  0  0  0  0  0  0
    8.0950  -10.4190   17.8978 H   0  0  0  0  0  0  0  0  0  0  0  0
    8.2144  -11.8147   16.9486 H   0  0  0  0  0  0  0  0  0  0  0  0
    4.6627   -9.5115   14.8443 H   0  0  0  0  0  0  0  0  0  0  0  0
    5.1151  -11.1522   14.1062 H   0  0  0  0  0  0  0  0  0  0  0  0
    3.3135  -11.7722   15.7416 H   0  0  0  0  0  0  0  0  0  0  0  0
    3.4995  -10.5151   16.9862 H   0  0  0  0  0  0  0  0  0  0  0  0
  1  2  1  0
  2  3  1  0
  3  4  2  0
  3  5  1  0
  5  6  1  0
  6  7  1  0
  7  8  2  0
  7  9  1  0
  9 10  1  0
 10 11  1  0
 11 12  2  0
 12 13  1  0
 13 14  2  0
 14 15  1  0
  6 16  1  0
 16 17  1  0
 17 18  1  0
 18 19  1  0
 19 20  1  0
 20 21  1  0
 15 11  1  0
 21 16  1  0
  1 22  1  0
  1 23  1  0
  1 24  1  0
  5 25  1  0
  5 26  1  0
  9 27  1  0
  9 28  1  0
 10 29  1  0
 10 30  1  0
 12 31  1  0
 13 32  1  0
 15 33  1  0
 16 34  1  0
 17 35  1  0
 17 36  1  0
 18 37  1  0
 18 38  1  0
 20 39  1  0
 20 40  1  0
 21 41  1  0
 21 42  1  0
M  END
>  <Energy>  (495) 
1473.6782526349739

>  <compound_id>  (495) 
58604

>  <target_id>  (495) 
1

>  <reference_id>  (495) 
81

>  <inspiration_ids>  (495) 
[112, 81]

>  <energy_score>  (495) 
1396.9670523476302

>  <distance_score>  (495) 
12.650862639949878

>  <path>  (495) 
/opt/xchem-fragalysis-2/maxwin/BulkDock/SCRATCH/511016/C58604-P81/C58604-P81.minimised.mol

>  <scratch_subdir>  (495) 
/opt/xchem-fragalysis-2/maxwin/BulkDock/SCRATCH/511016/C58604-P81

>  <fragmenstein_runtime>  (495) 
27.14474606513977

>  <fragmenstein_outcome>  (495) 
too moved

>  <fragmenstein_mode>  (495) 
expansion

>  <fragmenstein_error>  (495) 


$$$$
C90232-P112
     RDKit          3D

 49 50  0  0  0  0  0  0  0  0999 V2000
   -1.6436  -15.6669   19.4820 C   0  0  0  0  0  0  0  0  0  0  0  0
   -0.3927  -15.2736   18.1845 C   0  0  0  0  0  0  0  0  0  0  0  0
   -0.4945  -14.6177   16.9479 N   0  0  0  0  0  0  0  0  0  0  0  0
   -2.1694  -13.9588   16.7653 C   0  0  0  0  0  0  0  0  0  0  0  0
   -2.4024  -12.8381   17.1466 O   0  0  0  0  0  0  0  0  0  0  0  0
   -3.5006  -15.4714   15.9240 C   0  0  0  0  0  0  0  0  0  0  0  0
   -4.6509  -16.2543   14.3374 C   0  0  0  0  0  0  0  0  0  0  0  0
   -5.4025  -15.2941   13.0884 C   0  0  0  0  0  0  0  0  0  0  0  0
   -6.6470  -15.6797   12.6088 C   0  0  0  0  0  0  0  0  0  0  0  0
   -6.9526  -16.7360   13.2995 N   0  0  0  0  0  0  0  0  0  0  0  0
   -5.7758  -17.1098   13.8695 N   0  0  0  0  0  0  0  0  0  0  0  0
    1.2988  -13.8213   17.5723 C   0  0  0  0  0  0  0  0  0  0  0  0
    2.2805  -15.0937   17.7779 C   0  0  0  0  0  0  0  0  0  0  0  0
    2.9807  -12.3738   17.6865 C   0  0  0  0  0  0  0  0  0  0  0  0
    2.7047  -10.4459   17.6221 N   0  0  0  0  0  0  0  0  0  0  0  0
    3.5975   -9.3281   17.9130 C   0  0  0  0  0  0  0  0  0  0  0  0
    4.7917   -9.3085   18.1977 O   0  0  0  0  0  0  0  0  0  0  0  0
    3.0568   -7.9153   17.8622 C   0  0  0  0  0  0  0  0  0  0  0  0
    4.5768   -6.8897   18.4026 C   0  0  0  0  0  0  0  0  0  0  0  0
    5.2189   -5.8510   17.4345 C   0  0  0  0  0  0  0  0  0  0  0  0
    4.9794   -5.7518   16.0312 O   0  0  0  0  0  0  0  0  0  0  0  0
    3.6928   -6.1531   15.4300 C   0  0  0  0  0  0  0  0  0  0  0  0
    2.7496   -7.5344   16.2786 C   0  0  0  0  0  0  0  0  0  0  0  0
   -1.9838  -14.7822   19.9861 H   0  0  0  0  0  0  0  0  0  0  0  0
   -1.3279  -16.1477   20.4175 H   0  0  0  0  0  0  0  0  0  0  0  0
   -2.4936  -16.1512   19.0783 H   0  0  0  0  0  0  0  0  0  0  0  0
   -1.4681  -14.9663   18.2024 H   0  0  0  0  0  0  0  0  0  0  0  0
   -0.4803  -14.2467   18.0727 H   0  0  0  0  0  0  0  0  0  0  0  0
   -2.9066  -15.9954   15.1566 H   0  0  0  0  0  0  0  0  0  0  0  0
   -3.7761  -16.2182   16.6804 H   0  0  0  0  0  0  0  0  0  0  0  0
   -4.8732  -14.3874   12.8788 H   0  0  0  0  0  0  0  0  0  0  0  0
   -7.3195  -15.2093   11.9071 H   0  0  0  0  0  0  0  0  0  0  0  0
   -5.6889  -18.1160   13.8224 H   0  0  0  0  0  0  0  0  0  0  0  0
    0.8600  -13.3106   18.3354 H   0  0  0  0  0  0  0  0  0  0  0  0
    1.8337  -15.9448   18.2920 H   0  0  0  0  0  0  0  0  0  0  0  0
    3.1675  -14.8139   18.3430 H   0  0  0  0  0  0  0  0  0  0  0  0
    2.6317  -15.4797   16.8190 H   0  0  0  0  0  0  0  0  0  0  0  0
    3.6238  -11.9756   16.8919 H   0  0  0  0  0  0  0  0  0  0  0  0
    3.7611  -12.7102   18.3916 H   0  0  0  0  0  0  0  0  0  0  0  0
    1.7848  -10.1005   17.5164 H   0  0  0  0  0  0  0  0  0  0  0  0
    2.1488   -7.7930   18.4542 H   0  0  0  0  0  0  0  0  0  0  0  0
    5.3670   -7.4672   18.8799 H   0  0  0  0  0  0  0  0  0  0  0  0
    4.3395   -6.1943   19.2169 H   0  0  0  0  0  0  0  0  0  0  0  0
    6.2776   -5.7535   17.6472 H   0  0  0  0  0  0  0  0  0  0  0  0
    4.7441   -4.9603   17.8132 H   0  0  0  0  0  0  0  0  0  0  0  0
    3.0603   -5.2682   15.2803 H   0  0  0  0  0  0  0  0  0  0  0  0
    3.9883   -6.4778   14.4313 H   0  0  0  0  0  0  0  0  0  0  0  0
    1.6379   -7.5443   16.3220 H   0  0  0  0  0  0  0  0  0  0  0  0
    2.8316   -8.2460   15.5112 H   0  0  0  0  0  0  0  0  0  0  0  0
  1  2  1  0
  2  3  1  0
  3  4  1  0
  4  5  2  0
  4  6  1  0
  6  7  1  0
  7  8  2  0
  8  9  1  0
  9 10  2  0
 10 11  1  0
  3 12  1  0
 12 13  1  0
 12 14  1  0
 14 15  1  0
 15 16  1  0
 16 17  2  0
 16 18  1  0
 18 19  1  0
 19 20  1  0
 20 21  1  0
 21 22  1  0
 22 23  1  0
 11  7  1  0
 23 18  1  0
  1 24  1  0
  1 25  1  0
  1 26  1  0
  2 27  1  0
  2 28  1  0
  6 29  1  0
  6 30  1  0
  8 31  1  0
  9 32  1  0
 11 33  1  0
 12 34  1  0
 13 35  1  0
 13 36  1  0
 13 37  1  0
 14 38  1  0
 14 39  1  0
 15 40  1  0
 18 41  1  0
 19 42  1  0
 19 43  1  0
 20 44  1  0
 20 45  1  0
 22 46  1  0
 22 47  1  0
 23 48  1  0
 23 49  1  0
M  END
>  <Energy>  (496) 
1213.7751342266261

>  <compound_id>  (496) 
90232

>  <target_id>  (496) 
1

>  <reference_id>  (496) 
112

>  <inspiration_ids>  (496) 
[112, 81]

>  <energy_score>  (496) 
1148.4200295407336

>  <distance_score>  (496) 
10.985400972284662

>  <path>  (496) 
/opt/xchem-fragalysis-2/maxwin/BulkDock/SCRATCH/511016/C90232-P112/C90232-P112.minimised.mol

>  <scratch_subdir>  (496) 
/opt/xchem-fragalysis-2/maxwin/BulkDock/SCRATCH/511016/C90232-P112

>  <fragmenstein_runtime>  (496) 
24.605860710144043

>  <fragmenstein_outcome>  (496) 
too moved

>  <fragmenstein_mode>  (496) 
expansion

>  <fragmenstein_error>  (496) 


$$$$
C90232-P81
     RDKit          3D

 49 50  0  0  0  0  0  0  0  0999 V2000
   -3.0359  -14.2500   15.8691 C   0  0  0  0  0  0  0  0  0  0  0  0
   -3.0377  -14.0732   13.7745 C   0  0  0  0  0  0  0  0  0  0  0  0
   -2.4281  -14.9254   14.7217 N   0  0  0  0  0  0  0  0  0  0  0  0
   -3.1662  -16.4151   14.6725 C   0  0  0  0  0  0  0  0  0  0  0  0
   -2.9048  -17.3904   14.0416 O   0  0  0  0  0  0  0  0  0  0  0  0
   -4.3900  -16.6044   15.3568 C   0  0  0  0  0  0  0  0  0  0  0  0
   -5.6450  -16.5034   13.8042 C   0  0  0  0  0  0  0  0  0  0  0  0
   -6.4422  -17.4650   13.1427 C   0  0  0  0  0  0  0  0  0  0  0  0
   -7.5619  -16.8910   12.4875 C   0  0  0  0  0  0  0  0  0  0  0  0
   -7.4357  -15.5845   12.4786 N   0  0  0  0  0  0  0  0  0  0  0  0
   -6.1299  -15.4729   12.8092 N   0  0  0  0  0  0  0  0  0  0  0  0
   -0.6824  -14.2336   13.8066 C   0  0  0  0  0  0  0  0  0  0  0  0
   -0.1909  -14.7457   12.0885 C   0  0  0  0  0  0  0  0  0  0  0  0
    0.7715  -13.2229   13.7249 C   0  0  0  0  0  0  0  0  0  0  0  0
    1.9169  -12.2912   14.8925 N   0  0  0  0  0  0  0  0  0  0  0  0
    3.8682  -11.8335   14.6839 C   0  0  0  0  0  0  0  0  0  0  0  0
    4.6092  -12.2411   13.7939 O   0  0  0  0  0  0  0  0  0  0  0  0
    4.4834  -10.9548   15.3339 C   0  0  0  0  0  0  0  0  0  0  0  0
    4.0764   -9.8183   13.8927 C   0  0  0  0  0  0  0  0  0  0  0  0
    4.5670   -8.0303   13.6639 C   0  0  0  0  0  0  0  0  0  0  0  0
    6.1099   -7.8037   13.8910 O   0  0  0  0  0  0  0  0  0  0  0  0
    7.0502   -8.9943   13.6870 C   0  0  0  0  0  0  0  0  0  0  0  0
    5.9340  -10.5172   13.9582 C   0  0  0  0  0  0  0  0  0  0  0  0
   -2.1220  -13.7967   16.3755 H   0  0  0  0  0  0  0  0  0  0  0  0
   -3.0795  -15.1927   16.4352 H   0  0  0  0  0  0  0  0  0  0  0  0
   -3.7989  -13.8664   16.4810 H   0  0  0  0  0  0  0  0  0  0  0  0
   -3.8459  -13.3887   13.5625 H   0  0  0  0  0  0  0  0  0  0  0  0
   -3.6260  -14.6684   13.0564 H   0  0  0  0  0  0  0  0  0  0  0  0
   -4.1670  -17.5643   15.8112 H   0  0  0  0  0  0  0  0  0  0  0  0
   -4.7589  -16.1276   16.2525 H   0  0  0  0  0  0  0  0  0  0  0  0
   -6.1505  -18.4940   13.0922 H   0  0  0  0  0  0  0  0  0  0  0  0
   -8.3891  -17.3638   11.9755 H   0  0  0  0  0  0  0  0  0  0  0  0
   -5.6568  -14.6128   12.5326 H   0  0  0  0  0  0  0  0  0  0  0  0
   -1.0866  -13.2680   13.8445 H   0  0  0  0  0  0  0  0  0  0  0  0
    0.4903  -14.0679   11.6056 H   0  0  0  0  0  0  0  0  0  0  0  0
   -1.0047  -14.7863   11.3526 H   0  0  0  0  0  0  0  0  0  0  0  0
    0.3598  -15.6908   12.1227 H   0  0  0  0  0  0  0  0  0  0  0  0
    0.2218  -12.2835   13.7082 H   0  0  0  0  0  0  0  0  0  0  0  0
    0.6626  -12.8245   12.7134 H   0  0  0  0  0  0  0  0  0  0  0  0
    1.5706  -11.9292   15.7132 H   0  0  0  0  0  0  0  0  0  0  0  0
    3.8199  -10.5968   16.1512 H   0  0  0  0  0  0  0  0  0  0  0  0
    3.1345   -9.8325   14.3300 H   0  0  0  0  0  0  0  0  0  0  0  0
    3.8398  -10.2819   12.9297 H   0  0  0  0  0  0  0  0  0  0  0  0
    4.2984   -7.6406   12.6727 H   0  0  0  0  0  0  0  0  0  0  0  0
    4.0181   -7.2887   14.2428 H   0  0  0  0  0  0  0  0  0  0  0  0
    7.5362   -8.9648   12.7116 H   0  0  0  0  0  0  0  0  0  0  0  0
    7.9110   -8.9265   14.3794 H   0  0  0  0  0  0  0  0  0  0  0  0
    6.6568  -11.2604   13.5525 H   0  0  0  0  0  0  0  0  0  0  0  0
    5.5120  -10.7570   12.9892 H   0  0  0  0  0  0  0  0  0  0  0  0
  1  2  1  0
  2  3  1  0
  3  4  1  0
  4  5  2  0
  4  6  1  0
  6  7  1  0
  7  8  2  0
  8  9  1  0
  9 10  2  0
 10 11  1  0
  3 12  1  0
 12 13  1  0
 12 14  1  0
 14 15  1  0
 15 16  1  0
 16 17  2  0
 16 18  1  0
 18 19  1  0
 19 20  1  0
 20 21  1  0
 21 22  1  0
 22 23  1  0
 11  7  1  0
 23 18  1  0
  1 24  1  0
  1 25  1  0
  1 26  1  0
  2 27  1  0
  2 28  1  0
  6 29  1  0
  6 30  1  0
  8 31  1  0
  9 32  1  0
 11 33  1  0
 12 34  1  0
 13 35  1  0
 13 36  1  0
 13 37  1  0
 14 38  1  0
 14 39  1  0
 15 40  1  0
 18 41  1  0
 19 42  1  0
 19 43  1  0
 20 44  1  0
 20 45  1  0
 22 46  1  0
 22 47  1  0
 23 48  1  0
 23 49  1  0
M  END
>  <Energy>  (497) 
1359.8376370481913

>  <compound_id>  (497) 
90232

>  <target_id>  (497) 
1

>  <reference_id>  (497) 
81

>  <inspiration_ids>  (497) 
[112, 81]

>  <energy_score>  (497) 
1294.4825323623054

>  <distance_score>  (497) 
10.75576578312779

>  <path>  (497) 
/opt/xchem-fragalysis-2/maxwin/BulkDock/SCRATCH/511016/C90232-P81/C90232-P81.minimised.mol

>  <scratch_subdir>  (497) 
/opt/xchem-fragalysis-2/maxwin/BulkDock/SCRATCH/511016/C90232-P81

>  <fragmenstein_runtime>  (497) 
30.947596073150635

>  <fragmenstein_outcome>  (497) 
too moved

>  <fragmenstein_mode>  (497) 
expansion

>  <fragmenstein_error>  (497) 


$$$$
C90233-P112
     RDKit          3D

 44 46  0  0  0  0  0  0  0  0999 V2000
   -1.8156  -13.6282   16.8421 C   0  0  0  0  0  0  0  0  0  0  0  0
   -1.1726  -14.0806   15.2749 C   0  0  0  0  0  0  0  0  0  0  0  0
   -0.6833  -13.3952   13.4459 N   0  0  0  0  0  0  0  0  0  0  0  0
    0.2847  -11.8661   13.0999 C   0  0  0  0  0  0  0  0  0  0  0  0
    0.1728  -10.2803   13.2979 C   0  0  0  0  0  0  0  0  0  0  0  0
    1.6207   -9.6555   13.3344 C   0  0  0  0  0  0  0  0  0  0  0  0
    1.6410   -8.1391   13.5002 C   0  0  0  0  0  0  0  0  0  0  0  0
    0.8134   -7.5155   12.3966 C   0  0  0  0  0  0  0  0  0  0  0  0
   -0.5521   -8.1956   12.3324 C   0  0  0  0  0  0  0  0  0  0  0  0
   -0.4683   -9.6246   12.1769 O   0  0  0  0  0  0  0  0  0  0  0  0
   -0.1943  -14.5391   11.8940 S   0  0  0  0  0  0  0  0  0  0  0  0
   -1.3926  -14.5207   11.0928 O   0  0  0  0  0  0  0  0  0  0  0  0
    0.9977  -13.7996   11.6180 O   0  0  0  0  0  0  0  0  0  0  0  0
    0.4130  -16.2145   11.1158 C   0  0  0  0  0  0  0  0  0  0  0  0
   -0.0655  -16.8743    9.9924 C   0  0  0  0  0  0  0  0  0  0  0  0
    0.8656  -17.8006    9.4368 C   0  0  0  0  0  0  0  0  0  0  0  0
    1.6362  -18.0288   10.5283 C   0  0  0  0  0  0  0  0  0  0  0  0
    2.2696  -19.2154   10.9704 C   0  0  0  0  0  0  0  0  0  0  0  0
    2.3792  -20.4752   10.4317 C   0  0  0  0  0  0  0  0  0  0  0  0
    3.1356  -21.1947   11.3810 C   0  0  0  0  0  0  0  0  0  0  0  0
    3.4625  -20.4607   12.4499 N   0  0  0  0  0  0  0  0  0  0  0  0
    2.8294  -19.2921   12.2144 N   0  0  0  0  0  0  0  0  0  0  0  0
    1.6315  -16.8506   11.2166 O   0  0  0  0  0  0  0  0  0  0  0  0
   -1.2965  -14.2586   17.5635 H   0  0  0  0  0  0  0  0  0  0  0  0
   -1.7219  -12.6634   17.3365 H   0  0  0  0  0  0  0  0  0  0  0  0
   -2.8437  -13.9764   16.8937 H   0  0  0  0  0  0  0  0  0  0  0  0
   -0.2552  -14.3708   15.7862 H   0  0  0  0  0  0  0  0  0  0  0  0
   -1.8943  -14.7172   14.8072 H   0  0  0  0  0  0  0  0  0  0  0  0
    0.3307  -11.8996   12.0125 H   0  0  0  0  0  0  0  0  0  0  0  0
    1.1664  -12.1300   13.6494 H   0  0  0  0  0  0  0  0  0  0  0  0
   -0.3771   -9.9836   14.1863 H   0  0  0  0  0  0  0  0  0  0  0  0
    2.1112   -9.8777   12.3785 H   0  0  0  0  0  0  0  0  0  0  0  0
    2.2286  -10.0854   14.1291 H   0  0  0  0  0  0  0  0  0  0  0  0
    1.2281   -7.8702   14.4796 H   0  0  0  0  0  0  0  0  0  0  0  0
    2.6696   -7.7646   13.4622 H   0  0  0  0  0  0  0  0  0  0  0  0
    1.3293   -7.6569   11.4391 H   0  0  0  0  0  0  0  0  0  0  0  0
    0.6992   -6.4387   12.5579 H   0  0  0  0  0  0  0  0  0  0  0  0
   -1.1091   -7.8120   11.4714 H   0  0  0  0  0  0  0  0  0  0  0  0
   -1.1452   -7.9723   13.2274 H   0  0  0  0  0  0  0  0  0  0  0  0
   -1.0640  -16.7961    9.6095 H   0  0  0  0  0  0  0  0  0  0  0  0
    0.6880  -18.4696    8.6068 H   0  0  0  0  0  0  0  0  0  0  0  0
    1.9886  -20.8279    9.4897 H   0  0  0  0  0  0  0  0  0  0  0  0
    3.4513  -22.2283   11.3388 H   0  0  0  0  0  0  0  0  0  0  0  0
    2.8416  -18.5490   12.9124 H   0  0  0  0  0  0  0  0  0  0  0  0
  1  2  1  0
  2  3  1  0
  3  4  1  0
  4  5  1  0
  5  6  1  0
  6  7  1  0
  7  8  1  0
  8  9  1  0
  9 10  1  0
  3 11  1  0
 11 12  2  0
 11 13  2  0
 11 14  1  0
 14 15  2  0
 15 16  1  0
 16 17  2  0
 17 18  1  0
 18 19  2  0
 19 20  1  0
 20 21  2  0
 21 22  1  0
 17 23  1  0
 10  5  1  0
 23 14  1  0
 22 18  1  0
  1 24  1  0
  1 25  1  0
  1 26  1  0
  2 27  1  0
  2 28  1  0
  4 29  1  0
  4 30  1  0
  5 31  1  0
  6 32  1  0
  6 33  1  0
  7 34  1  0
  7 35  1  0
  8 36  1  0
  8 37  1  0
  9 38  1  0
  9 39  1  0
 15 40  1  0
 16 41  1  0
 19 42  1  0
 20 43  1  0
 22 44  1  0
M  END
>  <Energy>  (498) 
334.295728283843

>  <compound_id>  (498) 
90233

>  <target_id>  (498) 
1

>  <reference_id>  (498) 
112

>  <inspiration_ids>  (498) 
[112, 81]

>  <energy_score>  (498) 
273.6506569639264

>  <distance_score>  (498) 
14.58614402089547

>  <path>  (498) 
/opt/xchem-fragalysis-2/maxwin/BulkDock/SCRATCH/511016/C90233-P112/C90233-P112.minimised.mol

>  <scratch_subdir>  (498) 
/opt/xchem-fragalysis-2/maxwin/BulkDock/SCRATCH/511016/C90233-P112

>  <fragmenstein_runtime>  (498) 
20.713829517364502

>  <fragmenstein_outcome>  (498) 
too moved

>  <fragmenstein_mode>  (498) 
expansion

>  <fragmenstein_error>  (498) 


$$$$
C90233-P81
     RDKit          3D

 44 46  0  0  0  0  0  0  0  0999 V2000
    0.8722  -17.9167    8.4457 C   0  0  0  0  0  0  0  0  0  0  0  0
    0.9196  -17.0472    9.6926 C   0  0  0  0  0  0  0  0  0  0  0  0
    1.9612  -17.3900   10.6948 N   0  0  0  0  0  0  0  0  0  0  0  0
    3.4144  -17.3367   10.0262 C   0  0  0  0  0  0  0  0  0  0  0  0
    3.7513  -15.9728    9.1924 C   0  0  0  0  0  0  0  0  0  0  0  0
    5.2519  -15.6284    9.1437 C   0  0  0  0  0  0  0  0  0  0  0  0
    5.4649  -14.1580    8.7786 C   0  0  0  0  0  0  0  0  0  0  0  0
    4.8226  -13.9033    7.4275 C   0  0  0  0  0  0  0  0  0  0  0  0
    3.4212  -14.5227    7.3379 C   0  0  0  0  0  0  0  0  0  0  0  0
    3.3334  -15.8953    7.8135 O   0  0  0  0  0  0  0  0  0  0  0  0
    1.5281  -18.9170   11.7133 S   0  0  0  0  0  0  0  0  0  0  0  0
    1.4548  -19.9127   10.6561 O   0  0  0  0  0  0  0  0  0  0  0  0
    2.4990  -19.0689   12.7718 O   0  0  0  0  0  0  0  0  0  0  0  0
   -0.2829  -18.8268   12.4595 C   0  0  0  0  0  0  0  0  0  0  0  0
   -0.9937  -19.8961   12.6601 C   0  0  0  0  0  0  0  0  0  0  0  0
   -2.9933  -20.1962   12.0801 C   0  0  0  0  0  0  0  0  0  0  0  0
   -3.3224  -20.2661   13.2284 C   0  0  0  0  0  0  0  0  0  0  0  0
   -4.8175  -19.6626   12.6988 C   0  0  0  0  0  0  0  0  0  0  0  0
   -5.9441  -18.7232   12.6530 C   0  0  0  0  0  0  0  0  0  0  0  0
   -6.9932  -19.4256   11.9815 C   0  0  0  0  0  0  0  0  0  0  0  0
   -6.9358  -20.6152   12.5541 N   0  0  0  0  0  0  0  0  0  0  0  0
   -5.5501  -20.7064   12.4145 N   0  0  0  0  0  0  0  0  0  0  0  0
   -1.7120  -19.2910   13.6963 O   0  0  0  0  0  0  0  0  0  0  0  0
    1.8142  -17.9138    7.8937 H   0  0  0  0  0  0  0  0  0  0  0  0
    0.1029  -17.5365    7.7647 H   0  0  0  0  0  0  0  0  0  0  0  0
    0.6328  -18.9595    8.6545 H   0  0  0  0  0  0  0  0  0  0  0  0
   -0.0383  -16.9714   10.2013 H   0  0  0  0  0  0  0  0  0  0  0  0
    1.1202  -16.0274    9.3685 H   0  0  0  0  0  0  0  0  0  0  0  0
    3.5100  -18.2006    9.3612 H   0  0  0  0  0  0  0  0  0  0  0  0
    4.1192  -17.4438   10.8563 H   0  0  0  0  0  0  0  0  0  0  0  0
    3.1846  -15.1712    9.6473 H   0  0  0  0  0  0  0  0  0  0  0  0
    5.7185  -15.8278   10.0848 H   0  0  0  0  0  0  0  0  0  0  0  0
    5.7531  -16.2635    8.4016 H   0  0  0  0  0  0  0  0  0  0  0  0
    5.0106  -13.5129    9.5397 H   0  0  0  0  0  0  0  0  0  0  0  0
    6.5340  -13.9230    8.7432 H   0  0  0  0  0  0  0  0  0  0  0  0
    5.4501  -14.3700    6.6576 H   0  0  0  0  0  0  0  0  0  0  0  0
    4.7840  -12.8317    7.2061 H   0  0  0  0  0  0  0  0  0  0  0  0
    3.0886  -14.5265    6.2947 H   0  0  0  0  0  0  0  0  0  0  0  0
    2.7083  -13.9130    7.8972 H   0  0  0  0  0  0  0  0  0  0  0  0
   -0.2447  -20.3019   13.3079 H   0  0  0  0  0  0  0  0  0  0  0  0
   -3.5932  -19.7859   11.2107 H   0  0  0  0  0  0  0  0  0  0  0  0
   -6.1000  -17.7103   13.0006 H   0  0  0  0  0  0  0  0  0  0  0  0
   -7.9425  -19.2061   11.5518 H   0  0  0  0  0  0  0  0  0  0  0  0
   -5.1621  -21.6147   12.2563 H   0  0  0  0  0  0  0  0  0  0  0  0
  1  2  1  0
  2  3  1  0
  3  4  1  0
  4  5  1  0
  5  6  1  0
  6  7  1  0
  7  8  1  0
  8  9  1  0
  9 10  1  0
  3 11  1  0
 11 12  2  0
 11 13  2  0
 11 14  1  0
 14 15  2  0
 15 16  1  0
 16 17  2  0
 17 18  1  0
 18 19  2  0
 19 20  1  0
 20 21  2  0
 21 22  1  0
 17 23  1  0
 10  5  1  0
 23 14  1  0
 22 18  1  0
  1 24  1  0
  1 25  1  0
  1 26  1  0
  2 27  1  0
  2 28  1  0
  4 29  1  0
  4 30  1  0
  5 31  1  0
  6 32  1  0
  6 33  1  0
  7 34  1  0
  7 35  1  0
  8 36  1  0
  8 37  1  0
  9 38  1  0
  9 39  1  0
 15 40  1  0
 16 41  1  0
 19 42  1  0
 20 43  1  0
 22 44  1  0
M  END
>  <Energy>  (499) 
755.82276866167558

>  <compound_id>  (499) 
90233

>  <target_id>  (499) 
1

>  <reference_id>  (499) 
81

>  <inspiration_ids>  (499) 
[112, 81]

>  <energy_score>  (499) 
695.1776973417518

>  <distance_score>  (499) 
13.316434046695209

>  <path>  (499) 
/opt/xchem-fragalysis-2/maxwin/BulkDock/SCRATCH/511016/C90233-P81/C90233-P81.minimised.mol

>  <scratch_subdir>  (499) 
/opt/xchem-fragalysis-2/maxwin/BulkDock/SCRATCH/511016/C90233-P81

>  <fragmenstein_runtime>  (499) 
25.363245725631714

>  <fragmenstein_outcome>  (499) 
too moved

>  <fragmenstein_mode>  (499) 
expansion

>  <fragmenstein_error>  (499) 


$$$$
C90234-P112
     RDKit          3D

 38 39  0  0  0  0  0  0  0  0999 V2000
    3.2645  -11.6834    9.7077 C   0  0  0  0  0  0  0  0  0  0  0  0
    2.8298  -11.1062   10.6622 C   0  0  0  0  0  0  0  0  0  0  0  0
    2.0951  -10.6970   11.9806 C   0  0  0  0  0  0  0  0  0  0  0  0
    3.5580  -10.2063   13.4622 C   0  0  0  0  0  0  0  0  0  0  0  0
    3.9084   -9.1466   15.0481 C   0  0  0  0  0  0  0  0  0  0  0  0
    3.0951   -7.9113   15.9740 C   0  0  0  0  0  0  0  0  0  0  0  0
    3.6626   -6.5086   16.0766 C   0  0  0  0  0  0  0  0  0  0  0  0
    4.0985   -6.2300   14.7834 O   0  0  0  0  0  0  0  0  0  0  0  0
    5.2366   -7.0191   14.5186 C   0  0  0  0  0  0  0  0  0  0  0  0
    5.2497   -8.4191   15.0203 C   0  0  0  0  0  0  0  0  0  0  0  0
    0.5017  -11.7839   11.8026 N   0  0  0  0  0  0  0  0  0  0  0  0
    0.2869  -13.5061   11.7814 C   0  0  0  0  0  0  0  0  0  0  0  0
    1.1578  -14.2918   11.9731 O   0  0  0  0  0  0  0  0  0  0  0  0
   -1.3180  -14.4408   11.2933 C   0  0  0  0  0  0  0  0  0  0  0  0
   -2.6342  -15.2307   10.1297 C   0  0  0  0  0  0  0  0  0  0  0  0
   -4.0508  -15.0167    9.9232 C   0  0  0  0  0  0  0  0  0  0  0  0
   -4.5811  -15.9619    9.0258 C   0  0  0  0  0  0  0  0  0  0  0  0
   -3.6583  -16.8140    8.6362 N   0  0  0  0  0  0  0  0  0  0  0  0
   -2.5333  -16.3940    9.2469 N   0  0  0  0  0  0  0  0  0  0  0  0
    3.5911  -12.3865    8.9941 H   0  0  0  0  0  0  0  0  0  0  0  0
    1.6261   -9.8594   11.4413 H   0  0  0  0  0  0  0  0  0  0  0  0
    4.4942  -10.8102   13.6392 H   0  0  0  0  0  0  0  0  0  0  0  0
    4.0091   -9.5025   12.8442 H   0  0  0  0  0  0  0  0  0  0  0  0
    3.9062   -9.9679   15.7588 H   0  0  0  0  0  0  0  0  0  0  0  0
    2.0764   -7.7083   15.6203 H   0  0  0  0  0  0  0  0  0  0  0  0
    3.0536   -8.2704   17.0148 H   0  0  0  0  0  0  0  0  0  0  0  0
    4.4649   -6.4132   16.8186 H   0  0  0  0  0  0  0  0  0  0  0  0
    2.8809   -5.7953   16.3591 H   0  0  0  0  0  0  0  0  0  0  0  0
    6.0544   -6.5684   15.0863 H   0  0  0  0  0  0  0  0  0  0  0  0
    5.3796   -6.9805   13.4493 H   0  0  0  0  0  0  0  0  0  0  0  0
    5.5088   -8.2026   16.0704 H   0  0  0  0  0  0  0  0  0  0  0  0
    6.0902   -8.9864   14.6088 H   0  0  0  0  0  0  0  0  0  0  0  0
   -0.3988  -11.3382   11.6953 H   0  0  0  0  0  0  0  0  0  0  0  0
   -0.7171  -15.3535   11.1116 H   0  0  0  0  0  0  0  0  0  0  0  0
   -1.3222  -13.7416   10.5169 H   0  0  0  0  0  0  0  0  0  0  0  0
   -4.7067  -14.3160   10.4302 H   0  0  0  0  0  0  0  0  0  0  0  0
   -5.6009  -16.0741    8.6816 H   0  0  0  0  0  0  0  0  0  0  0  0
   -1.7344  -17.0273    9.1668 H   0  0  0  0  0  0  0  0  0  0  0  0
  1  2  3  0
  2  3  1  0
  3  4  1  0
  4  5  1  0
  5  6  1  0
  6  7  1  0
  7  8  1  0
  8  9  1  0
  9 10  1  0
  3 11  1  0
 11 12  1  0
 12 13  2  0
 12 14  1  0
 14 15  1  0
 15 16  2  0
 16 17  1  0
 17 18  2  0
 18 19  1  0
 10  5  1  0
 19 15  1  0
  1 20  1  0
  3 21  1  0
  4 22  1  0
  4 23  1  0
  5 24  1  0
  6 25  1  0
  6 26  1  0
  7 27  1  0
  7 28  1  0
  9 29  1  0
  9 30  1  0
 10 31  1  0
 10 32  1  0
 11 33  1  0
 14 34  1  0
 14 35  1  0
 16 36  1  0
 17 37  1  0
 19 38  1  0
M  END
>  <Energy>  (500) 
553.34318587477469

>  <compound_id>  (500) 
90234

>  <target_id>  (500) 
1

>  <reference_id>  (500) 
112

>  <inspiration_ids>  (500) 
[112, 81]

>  <energy_score>  (500) 
502.5436692840773

>  <distance_score>  (500) 
12.540282795277488

>  <path>  (500) 
/opt/xchem-fragalysis-2/maxwin/BulkDock/SCRATCH/511016/C90234-P112/C90234-P112.minimised.mol

>  <scratch_subdir>  (500) 
/opt/xchem-fragalysis-2/maxwin/BulkDock/SCRATCH/511016/C90234-P112

>  <fragmenstein_runtime>  (500) 
24.464833736419678

>  <fragmenstein_outcome>  (500) 
too moved

>  <fragmenstein_mode>  (500) 
expansion

>  <fragmenstein_error>  (500) 


$$$$
C90234-P81
     RDKit          3D

 38 39  0  0  0  0  0  0  0  0999 V2000
    5.4437  -11.7125   13.5942 C   0  0  0  0  0  0  0  0  0  0  0  0
    4.5184  -10.9972   13.7503 C   0  0  0  0  0  0  0  0  0  0  0  0
    3.1733  -10.7376   14.2408 C   0  0  0  0  0  0  0  0  0  0  0  0
    3.7752   -9.3712   15.4236 C   0  0  0  0  0  0  0  0  0  0  0  0
    3.3907   -7.8831   15.8977 C   0  0  0  0  0  0  0  0  0  0  0  0
    3.7243   -7.7491   17.4172 C   0  0  0  0  0  0  0  0  0  0  0  0
    5.1449   -7.2795   17.6986 C   0  0  0  0  0  0  0  0  0  0  0  0
    5.5981   -6.3097   16.7735 O   0  0  0  0  0  0  0  0  0  0  0  0
    4.5350   -5.6917   16.0517 C   0  0  0  0  0  0  0  0  0  0  0  0
    4.0339   -6.7448   15.0944 C   0  0  0  0  0  0  0  0  0  0  0  0
    1.5625  -12.0459   14.5580 N   0  0  0  0  0  0  0  0  0  0  0  0
    0.3588  -12.6801   13.4529 C   0  0  0  0  0  0  0  0  0  0  0  0
    0.1960  -12.3889   12.2701 O   0  0  0  0  0  0  0  0  0  0  0  0
   -0.9600  -13.9626   14.1118 C   0  0  0  0  0  0  0  0  0  0  0  0
   -2.5803  -14.7853   15.0446 C   0  0  0  0  0  0  0  0  0  0  0  0
   -3.9152  -15.0108   14.5915 C   0  0  0  0  0  0  0  0  0  0  0  0
   -4.7167  -15.3179   15.7031 C   0  0  0  0  0  0  0  0  0  0  0  0
   -4.0745  -15.0702   16.8405 N   0  0  0  0  0  0  0  0  0  0  0  0
   -2.8603  -14.6300   16.4308 N   0  0  0  0  0  0  0  0  0  0  0  0
    6.0621  -12.5752   13.5181 H   0  0  0  0  0  0  0  0  0  0  0  0
    3.6367  -11.3891   15.0930 H   0  0  0  0  0  0  0  0  0  0  0  0
    4.7873   -9.1958   15.0517 H   0  0  0  0  0  0  0  0  0  0  0  0
    3.7564   -9.9226   16.3659 H   0  0  0  0  0  0  0  0  0  0  0  0
    2.3269   -7.6384   15.8236 H   0  0  0  0  0  0  0  0  0  0  0  0
    3.0307   -7.0086   17.8413 H   0  0  0  0  0  0  0  0  0  0  0  0
    3.5045   -8.6636   17.9797 H   0  0  0  0  0  0  0  0  0  0  0  0
    5.8459   -8.1169   17.6674 H   0  0  0  0  0  0  0  0  0  0  0  0
    5.2064   -6.8536   18.7060 H   0  0  0  0  0  0  0  0  0  0  0  0
    4.8934   -4.8120   15.5229 H   0  0  0  0  0  0  0  0  0  0  0  0
    3.7607   -5.3091   16.7282 H   0  0  0  0  0  0  0  0  0  0  0  0
    3.3086   -6.2907   14.4096 H   0  0  0  0  0  0  0  0  0  0  0  0
    4.8564   -7.1370   14.4880 H   0  0  0  0  0  0  0  0  0  0  0  0
    1.5030  -12.5446   15.4555 H   0  0  0  0  0  0  0  0  0  0  0  0
   -1.1724  -13.9673   15.2512 H   0  0  0  0  0  0  0  0  0  0  0  0
   -1.3043  -13.0044   13.9099 H   0  0  0  0  0  0  0  0  0  0  0  0
   -4.2614  -14.8847   13.5782 H   0  0  0  0  0  0  0  0  0  0  0  0
   -5.7575  -15.6117   15.7308 H   0  0  0  0  0  0  0  0  0  0  0  0
   -2.2258  -14.2680   17.1294 H   0  0  0  0  0  0  0  0  0  0  0  0
  1  2  3  0
  2  3  1  0
  3  4  1  0
  4  5  1  0
  5  6  1  0
  6  7  1  0
  7  8  1  0
  8  9  1  0
  9 10  1  0
  3 11  1  0
 11 12  1  0
 12 13  2  0
 12 14  1  0
 14 15  1  0
 15 16  2  0
 16 17  1  0
 17 18  2  0
 18 19  1  0
 10  5  1  0
 19 15  1  0
  1 20  1  0
  3 21  1  0
  4 22  1  0
  4 23  1  0
  5 24  1  0
  6 25  1  0
  6 26  1  0
  7 27  1  0
  7 28  1  0
  9 29  1  0
  9 30  1  0
 10 31  1  0
 10 32  1  0
 11 33  1  0
 14 34  1  0
 14 35  1  0
 16 36  1  0
 17 37  1  0
 19 38  1  0
M  END
>  <Energy>  (501) 
590.83750050385811

>  <compound_id>  (501) 
90234

>  <target_id>  (501) 
1

>  <reference_id>  (501) 
81

>  <inspiration_ids>  (501) 
[112, 81]

>  <energy_score>  (501) 
540.0379839131671

>  <distance_score>  (501) 
12.653808472768821

>  <path>  (501) 
/opt/xchem-fragalysis-2/maxwin/BulkDock/SCRATCH/511016/C90234-P81/C90234-P81.minimised.mol

>  <scratch_subdir>  (501) 
/opt/xchem-fragalysis-2/maxwin/BulkDock/SCRATCH/511016/C90234-P81

>  <fragmenstein_runtime>  (501) 
20.34970736503601

>  <fragmenstein_outcome>  (501) 
too moved

>  <fragmenstein_mode>  (501) 
expansion

>  <fragmenstein_error>  (501) 


$$$$
C90235-P112
     RDKit          3D

 50 51  0  0  0  0  0  0  0  0999 V2000
    3.2222  -19.2763   15.8695 C   0  0  0  0  0  0  0  0  0  0  0  0
    2.0295  -18.4745   16.0156 N   0  0  0  0  0  0  0  0  0  0  0  0
    3.4711  -16.9398   16.4407 C   0  0  0  0  0  0  0  0  0  0  0  0
    3.9605  -15.1808   17.7719 C   0  0  0  0  0  0  0  0  0  0  0  0
    2.5593  -14.7787   17.8854 O   0  0  0  0  0  0  0  0  0  0  0  0
    4.8797  -13.4873   18.9807 C   0  0  0  0  0  0  0  0  0  0  0  0
    6.0654  -11.8772   18.3212 N   0  0  0  0  0  0  0  0  0  0  0  0
    7.5280  -10.8244   19.0774 C   0  0  0  0  0  0  0  0  0  0  0  0
    7.9601  -10.8548   20.2304 O   0  0  0  0  0  0  0  0  0  0  0  0
    8.6252   -9.6500   17.5347 C   0  0  0  0  0  0  0  0  0  0  0  0
    9.0728   -9.2918   15.6605 C   0  0  0  0  0  0  0  0  0  0  0  0
    9.4121   -7.2824   14.9711 C   0  0  0  0  0  0  0  0  0  0  0  0
   10.8039   -5.7663   14.9670 C   0  0  0  0  0  0  0  0  0  0  0  0
   10.6185   -6.5584   16.0666 C   0  0  0  0  0  0  0  0  0  0  0  0
    9.7390   -8.5314   16.2330 O   0  0  0  0  0  0  0  0  0  0  0  0
    0.7723  -18.7889   14.4280 C   0  0  0  0  0  0  0  0  0  0  0  0
    1.0129  -18.0281   13.6093 O   0  0  0  0  0  0  0  0  0  0  0  0
   -1.0733  -19.8683   13.7988 C   0  0  0  0  0  0  0  0  0  0  0  0
   -3.1810  -20.2675   13.0061 C   0  0  0  0  0  0  0  0  0  0  0  0
   -4.6952  -20.8305   12.3629 C   0  0  0  0  0  0  0  0  0  0  0  0
   -5.3340  -21.9048   11.6873 C   0  0  0  0  0  0  0  0  0  0  0  0
   -6.6154  -21.8240   12.2547 C   0  0  0  0  0  0  0  0  0  0  0  0
   -6.9605  -20.5603   12.2389 N   0  0  0  0  0  0  0  0  0  0  0  0
   -5.7797  -19.9746   12.4042 N   0  0  0  0  0  0  0  0  0  0  0  0
    3.8383  -18.9258   15.0363 H   0  0  0  0  0  0  0  0  0  0  0  0
    3.7488  -19.3869   16.8125 H   0  0  0  0  0  0  0  0  0  0  0  0
    2.8839  -20.2777   15.5805 H   0  0  0  0  0  0  0  0  0  0  0  0
    3.3496  -16.4214   15.5074 H   0  0  0  0  0  0  0  0  0  0  0  0
    4.4442  -17.4382   16.4092 H   0  0  0  0  0  0  0  0  0  0  0  0
    4.1372  -15.9434   18.4961 H   0  0  0  0  0  0  0  0  0  0  0  0
    2.4319  -14.2973   17.0440 H   0  0  0  0  0  0  0  0  0  0  0  0
    4.1031  -12.9922   19.4981 H   0  0  0  0  0  0  0  0  0  0  0  0
    5.5410  -13.8541   19.7721 H   0  0  0  0  0  0  0  0  0  0  0  0
    5.9037  -11.6126   17.4985 H   0  0  0  0  0  0  0  0  0  0  0  0
    9.3887  -10.4671   17.5599 H   0  0  0  0  0  0  0  0  0  0  0  0
    9.8762  -10.0632   15.2963 H   0  0  0  0  0  0  0  0  0  0  0  0
    8.2391   -9.7426   15.1172 H   0  0  0  0  0  0  0  0  0  0  0  0
   10.0681   -7.9709   14.6299 H   0  0  0  0  0  0  0  0  0  0  0  0
    8.4977   -7.0022   14.4048 H   0  0  0  0  0  0  0  0  0  0  0  0
   10.5287   -4.6785   14.9405 H   0  0  0  0  0  0  0  0  0  0  0  0
   11.8697   -5.6968   14.7232 H   0  0  0  0  0  0  0  0  0  0  0  0
   11.8183   -6.8058   16.2371 H   0  0  0  0  0  0  0  0  0  0  0  0
   10.7922   -5.9256   16.9610 H   0  0  0  0  0  0  0  0  0  0  0  0
   -0.4954  -19.7403   12.8627 H   0  0  0  0  0  0  0  0  0  0  0  0
   -1.4733  -18.9513   14.3242 H   0  0  0  0  0  0  0  0  0  0  0  0
   -3.1030  -20.3985   11.9580 H   0  0  0  0  0  0  0  0  0  0  0  0
   -3.7719  -19.3236   12.8991 H   0  0  0  0  0  0  0  0  0  0  0  0
   -4.9144  -22.8550   11.3709 H   0  0  0  0  0  0  0  0  0  0  0  0
   -7.3371  -22.5890   12.4800 H   0  0  0  0  0  0  0  0  0  0  0  0
   -5.7910  -19.0036   12.6690 H   0  0  0  0  0  0  0  0  0  0  0  0
  1  2  1  0
  2  3  1  0
  3  4  1  0
  4  5  1  0
  4  6  1  0
  6  7  1  0
  7  8  1  0
  8  9  2  0
  8 10  1  0
 10 11  1  0
 11 12  1  0
 12 13  1  0
 13 14  1  0
 14 15  1  0
  2 16  1  0
 16 17  2  0
 16 18  1  0
 18 19  1  0
 19 20  1  0
 20 21  2  0
 21 22  1  0
 22 23  2  0
 23 24  1  0
 15 10  1  0
 24 20  1  0
  1 25  1  0
  1 26  1  0
  1 27  1  0
  3 28  1  0
  3 29  1  0
  4 30  1  0
  5 31  1  0
  6 32  1  0
  6 33  1  0
  7 34  1  0
 10 35  1  0
 11 36  1  0
 11 37  1  0
 12 38  1  0
 12 39  1  0
 13 40  1  0
 13 41  1  0
 14 42  1  0
 14 43  1  0
 18 44  1  0
 18 45  1  0
 19 46  1  0
 19 47  1  0
 21 48  1  0
 22 49  1  0
 24 50  1  0
M  END
>  <Energy>  (502) 
2778.271509395071

>  <compound_id>  (502) 
90235

>  <target_id>  (502) 
1

>  <reference_id>  (502) 
112

>  <inspiration_ids>  (502) 
[112, 81]

>  <energy_score>  (502) 
2688.4172971380904

>  <distance_score>  (502) 
7.960627543005986

>  <path>  (502) 
/opt/xchem-fragalysis-2/maxwin/BulkDock/SCRATCH/511016/C90235-P112/C90235-P112.minimised.mol

>  <scratch_subdir>  (502) 
/opt/xchem-fragalysis-2/maxwin/BulkDock/SCRATCH/511016/C90235-P112

>  <fragmenstein_runtime>  (502) 
24.965503692626953

>  <fragmenstein_outcome>  (502) 
too moved

>  <fragmenstein_mode>  (502) 
expansion

>  <fragmenstein_error>  (502) 


$$$$
C90235-P81
     RDKit          3D

 50 51  0  0  0  0  0  0  0  0999 V2000
   -0.5264  -16.6412   10.7075 C   0  0  0  0  0  0  0  0  0  0  0  0
   -0.7339  -17.6236   12.2139 N   0  0  0  0  0  0  0  0  0  0  0  0
    0.5814  -16.1229   12.2937 C   0  0  0  0  0  0  0  0  0  0  0  0
    0.4834  -14.0694   11.9148 C   0  0  0  0  0  0  0  0  0  0  0  0
   -0.0877  -13.6029   13.1597 O   0  0  0  0  0  0  0  0  0  0  0  0
    1.1378  -12.1550   11.4282 C   0  0  0  0  0  0  0  0  0  0  0  0
    2.3692  -10.6350   11.8054 N   0  0  0  0  0  0  0  0  0  0  0  0
    3.6729  -10.3501   13.1803 C   0  0  0  0  0  0  0  0  0  0  0  0
    4.0774  -11.1208   14.0650 O   0  0  0  0  0  0  0  0  0  0  0  0
    4.4873   -8.5015   13.4712 C   0  0  0  0  0  0  0  0  0  0  0  0
    6.1417   -7.7870   13.9678 C   0  0  0  0  0  0  0  0  0  0  0  0
    6.2792   -6.6423   15.5047 C   0  0  0  0  0  0  0  0  0  0  0  0
    5.0573   -5.7159   15.6851 C   0  0  0  0  0  0  0  0  0  0  0  0
    3.9772   -6.1516   14.7383 C   0  0  0  0  0  0  0  0  0  0  0  0
    4.2649   -7.0724   13.5618 O   0  0  0  0  0  0  0  0  0  0  0  0
   -2.4565  -17.9188   13.4689 C   0  0  0  0  0  0  0  0  0  0  0  0
   -2.8557  -17.2793   14.4864 O   0  0  0  0  0  0  0  0  0  0  0  0
   -3.8120  -19.4064   12.7185 C   0  0  0  0  0  0  0  0  0  0  0  0
   -5.1048  -19.6722   11.7527 C   0  0  0  0  0  0  0  0  0  0  0  0
   -6.8173  -19.1468   11.7761 C   0  0  0  0  0  0  0  0  0  0  0  0
   -7.5675  -17.9277   11.7367 C   0  0  0  0  0  0  0  0  0  0  0  0
   -8.8044  -18.2231   11.1560 C   0  0  0  0  0  0  0  0  0  0  0  0
   -8.9975  -19.5278   11.0511 N   0  0  0  0  0  0  0  0  0  0  0  0
   -7.8640  -20.0415   11.5655 N   0  0  0  0  0  0  0  0  0  0  0  0
   -1.0494  -16.8594    9.7734 H   0  0  0  0  0  0  0  0  0  0  0  0
    0.4895  -16.8300   10.3222 H   0  0  0  0  0  0  0  0  0  0  0  0
   -0.8483  -15.6187   10.8356 H   0  0  0  0  0  0  0  0  0  0  0  0
    1.4420  -16.6426   11.9171 H   0  0  0  0  0  0  0  0  0  0  0  0
    0.3663  -15.6654   13.1610 H   0  0  0  0  0  0  0  0  0  0  0  0
   -0.3710  -14.0318   11.2515 H   0  0  0  0  0  0  0  0  0  0  0  0
   -0.9296  -14.0938   13.3153 H   0  0  0  0  0  0  0  0  0  0  0  0
    0.3148  -11.6423   10.9300 H   0  0  0  0  0  0  0  0  0  0  0  0
    0.6133  -11.8181   12.3350 H   0  0  0  0  0  0  0  0  0  0  0  0
    2.2004   -9.7813   11.2882 H   0  0  0  0  0  0  0  0  0  0  0  0
    5.0338   -9.1766   14.1061 H   0  0  0  0  0  0  0  0  0  0  0  0
    6.3004   -7.2245   13.0363 H   0  0  0  0  0  0  0  0  0  0  0  0
    7.0499   -8.4111   13.9300 H   0  0  0  0  0  0  0  0  0  0  0  0
    7.2755   -6.2548   15.6611 H   0  0  0  0  0  0  0  0  0  0  0  0
    6.2346   -7.0740   16.4811 H   0  0  0  0  0  0  0  0  0  0  0  0
    5.2134   -4.6482   15.5210 H   0  0  0  0  0  0  0  0  0  0  0  0
    4.6789   -5.7653   16.7174 H   0  0  0  0  0  0  0  0  0  0  0  0
    3.2587   -6.5914   15.4225 H   0  0  0  0  0  0  0  0  0  0  0  0
    3.5404   -5.2335   14.3173 H   0  0  0  0  0  0  0  0  0  0  0  0
   -4.7277  -19.0519   13.2355 H   0  0  0  0  0  0  0  0  0  0  0  0
   -3.5177  -20.4024   13.0117 H   0  0  0  0  0  0  0  0  0  0  0  0
   -5.2646  -20.6401   12.1998 H   0  0  0  0  0  0  0  0  0  0  0  0
   -4.8069  -19.7944   10.7162 H   0  0  0  0  0  0  0  0  0  0  0  0
   -7.2338  -16.9208   11.9677 H   0  0  0  0  0  0  0  0  0  0  0  0
   -9.5510  -17.5215   10.8214 H   0  0  0  0  0  0  0  0  0  0  0  0
   -7.7650  -21.0472   11.6185 H   0  0  0  0  0  0  0  0  0  0  0  0
  1  2  1  0
  2  3  1  0
  3  4  1  0
  4  5  1  0
  4  6  1  0
  6  7  1  0
  7  8  1  0
  8  9  2  0
  8 10  1  0
 10 11  1  0
 11 12  1  0
 12 13  1  0
 13 14  1  0
 14 15  1  0
  2 16  1  0
 16 17  2  0
 16 18  1  0
 18 19  1  0
 19 20  1  0
 20 21  2  0
 21 22  1  0
 22 23  2  0
 23 24  1  0
 15 10  1  0
 24 20  1  0
  1 25  1  0
  1 26  1  0
  1 27  1  0
  3 28  1  0
  3 29  1  0
  4 30  1  0
  5 31  1  0
  6 32  1  0
  6 33  1  0
  7 34  1  0
 10 35  1  0
 11 36  1  0
 11 37  1  0
 12 38  1  0
 12 39  1  0
 13 40  1  0
 13 41  1  0
 14 42  1  0
 14 43  1  0
 18 44  1  0
 18 45  1  0
 19 46  1  0
 19 47  1  0
 21 48  1  0
 22 49  1  0
 24 50  1  0
M  END
>  <Energy>  (503) 
1438.1042529185363

>  <compound_id>  (503) 
90235

>  <target_id>  (503) 
1

>  <reference_id>  (503) 
81

>  <inspiration_ids>  (503) 
[112, 81]

>  <energy_score>  (503) 
1348.2500406615568

>  <distance_score>  (503) 
8.495689773018913

>  <path>  (503) 
/opt/xchem-fragalysis-2/maxwin/BulkDock/SCRATCH/511016/C90235-P81/C90235-P81.minimised.mol

>  <scratch_subdir>  (503) 
/opt/xchem-fragalysis-2/maxwin/BulkDock/SCRATCH/511016/C90235-P81

>  <fragmenstein_runtime>  (503) 
36.226999282836914

>  <fragmenstein_outcome>  (503) 
too moved

>  <fragmenstein_mode>  (503) 
expansion

>  <fragmenstein_error>  (503) 


$$$$
C90236-P112
     RDKit          3D

 42 43  0  0  0  0  0  0  0  0999 V2000
    9.7836  -14.6087    6.9164 O   0  0  0  0  0  0  0  0  0  0  0  0
    9.3620  -14.2283    7.9799 C   0  0  0  0  0  0  0  0  0  0  0  0
    8.2449  -15.2526    8.7370 C   0  0  0  0  0  0  0  0  0  0  0  0
    7.6658  -16.6087    8.0113 C   0  0  0  0  0  0  0  0  0  0  0  0
    6.5495  -17.6035    8.5859 C   0  0  0  0  0  0  0  0  0  0  0  0
    5.5338  -18.2763    7.8893 C   0  0  0  0  0  0  0  0  0  0  0  0
    4.7644  -18.9788    8.8412 C   0  0  0  0  0  0  0  0  0  0  0  0
    5.2897  -18.8610   10.0572 N   0  0  0  0  0  0  0  0  0  0  0  0
    6.4105  -18.1312    9.8516 N   0  0  0  0  0  0  0  0  0  0  0  0
    9.7404  -13.0218    8.8109 N   0  0  0  0  0  0  0  0  0  0  0  0
   10.8706  -11.9422    8.6074 C   0  0  0  0  0  0  0  0  0  0  0  0
   10.8010  -10.3703    9.3031 C   0  0  0  0  0  0  0  0  0  0  0  0
   12.0277   -9.7299   10.2487 C   0  0  0  0  0  0  0  0  0  0  0  0
   12.2265   -8.6539   11.6409 C   0  0  0  0  0  0  0  0  0  0  0  0
   12.4692   -9.8606   13.2069 C   0  0  0  0  0  0  0  0  0  0  0  0
   12.6401   -8.9989   15.1209 C   0  0  0  0  0  0  0  0  0  0  0  0
   12.7926   -7.0728   15.2858 O   0  0  0  0  0  0  0  0  0  0  0  0
   11.7649   -5.9017   14.0233 C   0  0  0  0  0  0  0  0  0  0  0  0
   11.7352   -6.6259   11.8535 C   0  0  0  0  0  0  0  0  0  0  0  0
    7.4166  -14.6313    9.0856 H   0  0  0  0  0  0  0  0  0  0  0  0
    8.8181  -15.6340    9.5818 H   0  0  0  0  0  0  0  0  0  0  0  0
    7.3293  -16.3006    7.0124 H   0  0  0  0  0  0  0  0  0  0  0  0
    8.5438  -17.2451    7.8307 H   0  0  0  0  0  0  0  0  0  0  0  0
    5.3452  -18.1927    6.8271 H   0  0  0  0  0  0  0  0  0  0  0  0
    3.8648  -19.5634    8.6981 H   0  0  0  0  0  0  0  0  0  0  0  0
    7.0322  -18.0299   10.6445 H   0  0  0  0  0  0  0  0  0  0  0  0
    9.2414  -13.0536    9.6943 H   0  0  0  0  0  0  0  0  0  0  0  0
   10.9719  -11.8254    7.5233 H   0  0  0  0  0  0  0  0  0  0  0  0
   11.7815  -12.4179    8.9855 H   0  0  0  0  0  0  0  0  0  0  0  0
    9.8266  -10.2377    9.7283 H   0  0  0  0  0  0  0  0  0  0  0  0
   10.7855   -9.7091    8.4238 H   0  0  0  0  0  0  0  0  0  0  0  0
   12.6845   -9.2615    9.4994 H   0  0  0  0  0  0  0  0  0  0  0  0
   12.5677  -10.6270   10.5831 H   0  0  0  0  0  0  0  0  0  0  0  0
   13.2846   -8.4994   11.3591 H   0  0  0  0  0  0  0  0  0  0  0  0
   11.5681  -10.5045   13.2446 H   0  0  0  0  0  0  0  0  0  0  0  0
   13.3024  -10.5584   13.0015 H   0  0  0  0  0  0  0  0  0  0  0  0
   12.8051   -9.8005   15.8335 H   0  0  0  0  0  0  0  0  0  0  0  0
   11.6160   -9.0374   15.6113 H   0  0  0  0  0  0  0  0  0  0  0  0
   12.3981   -4.9696   14.2651 H   0  0  0  0  0  0  0  0  0  0  0  0
   10.9883   -5.5553   14.7105 H   0  0  0  0  0  0  0  0  0  0  0  0
   12.6078   -6.6006   11.0573 H   0  0  0  0  0  0  0  0  0  0  0  0
   11.5058   -5.8596   11.0844 H   0  0  0  0  0  0  0  0  0  0  0  0
  1  2  2  0
  2  3  1  0
  3  4  1  0
  4  5  1  0
  5  6  2  0
  6  7  1  0
  7  8  2  0
  8  9  1  0
  2 10  1  0
 10 11  1  0
 11 12  1  0
 12 13  1  0
 13 14  1  0
 14 15  1  0
 15 16  1  0
 16 17  1  0
 17 18  1  0
 18 19  1  0
  9  5  1  0
 19 14  1  0
  3 20  1  0
  3 21  1  0
  4 22  1  0
  4 23  1  0
  6 24  1  0
  7 25  1  0
  9 26  1  0
 10 27  1  0
 11 28  1  0
 11 29  1  0
 12 30  1  0
 12 31  1  0
 13 32  1  0
 13 33  1  0
 14 34  1  0
 15 35  1  0
 15 36  1  0
 16 37  1  0
 16 38  1  0
 18 39  1  0
 18 40  1  0
 19 41  1  0
 19 42  1  0
M  END
>  <Energy>  (504) 
734.75155112308926

>  <compound_id>  (504) 
90236

>  <target_id>  (504) 
1

>  <reference_id>  (504) 
112

>  <inspiration_ids>  (504) 
[112, 81]

>  <energy_score>  (504) 
690.7950509482263

>  <distance_score>  (504) 
16.00502743577701

>  <path>  (504) 
/opt/xchem-fragalysis-2/maxwin/BulkDock/SCRATCH/511016/C90236-P112/C90236-P112.minimised.mol

>  <scratch_subdir>  (504) 
/opt/xchem-fragalysis-2/maxwin/BulkDock/SCRATCH/511016/C90236-P112

>  <fragmenstein_runtime>  (504) 
22.910098552703857

>  <fragmenstein_outcome>  (504) 
too moved

>  <fragmenstein_mode>  (504) 
expansion

>  <fragmenstein_error>  (504) 


$$$$
C90236-P81
     RDKit          3D

 42 43  0  0  0  0  0  0  0  0999 V2000
    6.8223  -20.9944   15.2283 O   0  0  0  0  0  0  0  0  0  0  0  0
    6.7309  -19.8934   14.7578 C   0  0  0  0  0  0  0  0  0  0  0  0
    5.3508  -19.5836   13.9739 C   0  0  0  0  0  0  0  0  0  0  0  0
    4.1471  -20.5492   14.3794 C   0  0  0  0  0  0  0  0  0  0  0  0
    2.8935  -20.6730   13.5226 C   0  0  0  0  0  0  0  0  0  0  0  0
    2.2118  -21.8089   13.1028 C   0  0  0  0  0  0  0  0  0  0  0  0
    1.0441  -21.3499   12.4633 C   0  0  0  0  0  0  0  0  0  0  0  0
    0.9828  -20.0168   12.4413 N   0  0  0  0  0  0  0  0  0  0  0  0
    2.0664  -19.6376   13.1587 N   0  0  0  0  0  0  0  0  0  0  0  0
    7.6847  -18.7680   14.7592 N   0  0  0  0  0  0  0  0  0  0  0  0
    9.0350  -18.6110   15.4370 C   0  0  0  0  0  0  0  0  0  0  0  0
    9.8169  -17.2484   15.2519 C   0  0  0  0  0  0  0  0  0  0  0  0
   11.0580  -16.8627   16.1856 C   0  0  0  0  0  0  0  0  0  0  0  0
   11.7169  -15.4385   15.9518 C   0  0  0  0  0  0  0  0  0  0  0  0
   10.9662  -14.2560   16.5735 C   0  0  0  0  0  0  0  0  0  0  0  0
   11.5680  -12.8665   16.3001 C   0  0  0  0  0  0  0  0  0  0  0  0
   12.8828  -12.9526   15.7735 O   0  0  0  0  0  0  0  0  0  0  0  0
   13.6850  -13.8511   16.5262 C   0  0  0  0  0  0  0  0  0  0  0  0
   13.1760  -15.3077   16.4348 C   0  0  0  0  0  0  0  0  0  0  0  0
    5.0587  -18.5443   14.1575 H   0  0  0  0  0  0  0  0  0  0  0  0
    5.5635  -19.7000   12.9054 H   0  0  0  0  0  0  0  0  0  0  0  0
    4.5570  -21.5636   14.4727 H   0  0  0  0  0  0  0  0  0  0  0  0
    3.8267  -20.2701   15.3908 H   0  0  0  0  0  0  0  0  0  0  0  0
    2.5093  -22.8349   13.2664 H   0  0  0  0  0  0  0  0  0  0  0  0
    0.2480  -21.9270   12.0120 H   0  0  0  0  0  0  0  0  0  0  0  0
    2.1628  -18.6500   13.3933 H   0  0  0  0  0  0  0  0  0  0  0  0
    7.2424  -17.9567   14.3385 H   0  0  0  0  0  0  0  0  0  0  0  0
    9.6541  -19.4299   15.0530 H   0  0  0  0  0  0  0  0  0  0  0  0
    8.8748  -18.8327   16.4952 H   0  0  0  0  0  0  0  0  0  0  0  0
    9.0859  -16.4427   15.2966 H   0  0  0  0  0  0  0  0  0  0  0  0
   10.2349  -17.2864   14.2453 H   0  0  0  0  0  0  0  0  0  0  0  0
   10.7901  -16.9821   17.2396 H   0  0  0  0  0  0  0  0  0  0  0  0
   11.8285  -17.6204   15.9902 H   0  0  0  0  0  0  0  0  0  0  0  0
   11.7637  -15.3563   14.8715 H   0  0  0  0  0  0  0  0  0  0  0  0
   10.9426  -14.3984   17.6619 H   0  0  0  0  0  0  0  0  0  0  0  0
    9.9369  -14.2329   16.2400 H   0  0  0  0  0  0  0  0  0  0  0  0
   11.5777  -12.2634   17.2157 H   0  0  0  0  0  0  0  0  0  0  0  0
   10.9542  -12.3246   15.5727 H   0  0  0  0  0  0  0  0  0  0  0  0
   14.7109  -13.7956   16.1475 H   0  0  0  0  0  0  0  0  0  0  0  0
   13.7137  -13.5215   17.5722 H   0  0  0  0  0  0  0  0  0  0  0  0
   13.8213  -15.8665   15.7450 H   0  0  0  0  0  0  0  0  0  0  0  0
   13.3047  -15.7881   17.4126 H   0  0  0  0  0  0  0  0  0  0  0  0
  1  2  2  0
  2  3  1  0
  3  4  1  0
  4  5  1  0
  5  6  2  0
  6  7  1  0
  7  8  2  0
  8  9  1  0
  2 10  1  0
 10 11  1  0
 11 12  1  0
 12 13  1  0
 13 14  1  0
 14 15  1  0
 15 16  1  0
 16 17  1  0
 17 18  1  0
 18 19  1  0
  9  5  1  0
 19 14  1  0
  3 20  1  0
  3 21  1  0
  4 22  1  0
  4 23  1  0
  6 24  1  0
  7 25  1  0
  9 26  1  0
 10 27  1  0
 11 28  1  0
 11 29  1  0
 12 30  1  0
 12 31  1  0
 13 32  1  0
 13 33  1  0
 14 34  1  0
 15 35  1  0
 15 36  1  0
 16 37  1  0
 16 38  1  0
 18 39  1  0
 18 40  1  0
 19 41  1  0
 19 42  1  0
M  END
>  <Energy>  (505) 
37.114339678419142

>  <compound_id>  (505) 
90236

>  <target_id>  (505) 
1

>  <reference_id>  (505) 
81

>  <inspiration_ids>  (505) 
[112, 81]

>  <energy_score>  (505) 
-6.842160496445302

>  <distance_score>  (505) 
14.204027578165384

>  <path>  (505) 
/opt/xchem-fragalysis-2/maxwin/BulkDock/SCRATCH/511016/C90236-P81/C90236-P81.minimised.mol

>  <scratch_subdir>  (505) 
/opt/xchem-fragalysis-2/maxwin/BulkDock/SCRATCH/511016/C90236-P81

>  <fragmenstein_runtime>  (505) 
18.983871459960938

>  <fragmenstein_outcome>  (505) 
too moved

>  <fragmenstein_mode>  (505) 
expansion

>  <fragmenstein_error>  (505) 


$$$$
C90240-P112
     RDKit          3D

 45 47  0  0  0  0  0  0  0  0999 V2000
   -0.0742  -13.1055   12.1223 C   0  0  0  0  0  0  0  0  0  0  0  0
   -0.7111  -12.3510   10.9595 C   0  0  0  0  0  0  0  0  0  0  0  0
   -0.4909  -10.8170   11.1729 C   0  0  0  0  0  0  0  0  0  0  0  0
    0.0359  -12.6699    9.6497 C   0  0  0  0  0  0  0  0  0  0  0  0
   -0.1831  -14.0115    9.2351 O   0  0  0  0  0  0  0  0  0  0  0  0
   -2.2842  -12.6516   10.9085 C   0  0  0  0  0  0  0  0  0  0  0  0
   -2.9949  -14.0404   10.8011 C   0  0  0  0  0  0  0  0  0  0  0  0
   -2.9950  -15.0652   11.7511 N   0  0  0  0  0  0  0  0  0  0  0  0
   -3.9641  -15.8901   11.3572 C   0  0  0  0  0  0  0  0  0  0  0  0
   -4.2843  -17.1403   11.9760 C   0  0  0  0  0  0  0  0  0  0  0  0
   -4.6876  -18.3628   11.4762 C   0  0  0  0  0  0  0  0  0  0  0  0
   -4.7720  -19.2051   12.6024 C   0  0  0  0  0  0  0  0  0  0  0  0
   -4.5149  -18.5571   13.7416 N   0  0  0  0  0  0  0  0  0  0  0  0
   -4.1624  -17.3299   13.3240 N   0  0  0  0  0  0  0  0  0  0  0  0
   -4.6346  -15.3017   10.3117 N   0  0  0  0  0  0  0  0  0  0  0  0
   -5.9334  -15.6447    9.7177 C   0  0  0  0  0  0  0  0  0  0  0  0
   -5.7552  -16.3969    8.3938 C   0  0  0  0  0  0  0  0  0  0  0  0
   -6.7916  -16.0205    7.3402 C   0  0  0  0  0  0  0  0  0  0  0  0
   -8.0676  -15.8389    7.9280 O   0  0  0  0  0  0  0  0  0  0  0  0
   -8.1242  -14.6567    8.7248 C   0  0  0  0  0  0  0  0  0  0  0  0
   -6.8684  -14.4261    9.5740 C   0  0  0  0  0  0  0  0  0  0  0  0
   -4.0077  -14.1719    9.9229 N   0  0  0  0  0  0  0  0  0  0  0  0
   -0.8193  -13.7202   12.6263 H   0  0  0  0  0  0  0  0  0  0  0  0
    0.7121  -13.7901   11.8031 H   0  0  0  0  0  0  0  0  0  0  0  0
    0.3300  -12.4276   12.8631 H   0  0  0  0  0  0  0  0  0  0  0  0
   -1.0182  -10.4706   12.0662 H   0  0  0  0  0  0  0  0  0  0  0  0
    0.5733  -10.5819   11.2500 H   0  0  0  0  0  0  0  0  0  0  0  0
   -0.8956  -10.2487   10.3273 H   0  0  0  0  0  0  0  0  0  0  0  0
   -0.3265  -12.0298    8.8377 H   0  0  0  0  0  0  0  0  0  0  0  0
    1.1146  -12.5032    9.7390 H   0  0  0  0  0  0  0  0  0  0  0  0
    0.1925  -14.6123    9.9031 H   0  0  0  0  0  0  0  0  0  0  0  0
   -2.6773  -12.0494   10.0754 H   0  0  0  0  0  0  0  0  0  0  0  0
   -2.7197  -12.2011   11.8120 H   0  0  0  0  0  0  0  0  0  0  0  0
   -4.8399  -18.6371   10.4438 H   0  0  0  0  0  0  0  0  0  0  0  0
   -5.0195  -20.2589   12.6383 H   0  0  0  0  0  0  0  0  0  0  0  0
   -3.8407  -16.6544   14.0082 H   0  0  0  0  0  0  0  0  0  0  0  0
   -6.3896  -16.3047   10.4547 H   0  0  0  0  0  0  0  0  0  0  0  0
   -4.7555  -16.2466    7.9673 H   0  0  0  0  0  0  0  0  0  0  0  0
   -5.8179  -17.4663    8.6083 H   0  0  0  0  0  0  0  0  0  0  0  0
   -6.8672  -16.8044    6.5816 H   0  0  0  0  0  0  0  0  0  0  0  0
   -6.4962  -15.1039    6.8142 H   0  0  0  0  0  0  0  0  0  0  0  0
   -9.0128  -14.7182    9.3623 H   0  0  0  0  0  0  0  0  0  0  0  0
   -8.2885  -13.7995    8.0607 H   0  0  0  0  0  0  0  0  0  0  0  0
   -6.3214  -13.6016    9.0970 H   0  0  0  0  0  0  0  0  0  0  0  0
   -7.1504  -14.0376   10.5607 H   0  0  0  0  0  0  0  0  0  0  0  0
  1  2  1  0
  2  3  1  0
  2  4  1  0
  4  5  1  0
  2  6  1  0
  6  7  1  0
  7  8  1  0
  8  9  2  0
  9 10  1  0
 10 11  2  0
 11 12  1  0
 12 13  2  0
 13 14  1  0
  9 15  1  0
 15 16  1  0
 16 17  1  0
 17 18  1  0
 18 19  1  0
 19 20  1  0
 20 21  1  0
 15 22  1  0
 22  7  2  0
 14 10  1  0
 21 16  1  0
  1 23  1  0
  1 24  1  0
  1 25  1  0
  3 26  1  0
  3 27  1  0
  3 28  1  0
  4 29  1  0
  4 30  1  0
  5 31  1  0
  6 32  1  0
  6 33  1  0
 11 34  1  0
 12 35  1  0
 14 36  1  0
 16 37  1  0
 17 38  1  0
 17 39  1  0
 18 40  1  0
 18 41  1  0
 20 42  1  0
 20 43  1  0
 21 44  1  0
 21 45  1  0
M  END
>  <Energy>  (506) 
45.893708476979477

>  <compound_id>  (506) 
90240

>  <target_id>  (506) 
1

>  <reference_id>  (506) 
112

>  <inspiration_ids>  (506) 
[112, 81]

>  <energy_score>  (506) 
-31.32869265781018

>  <distance_score>  (506) 
13.781017528831297

>  <path>  (506) 
/opt/xchem-fragalysis-2/maxwin/BulkDock/SCRATCH/511016/C90240-P112/C90240-P112.minimised.mol

>  <scratch_subdir>  (506) 
/opt/xchem-fragalysis-2/maxwin/BulkDock/SCRATCH/511016/C90240-P112

>  <fragmenstein_runtime>  (506) 
16.888726472854614

>  <fragmenstein_outcome>  (506) 
too moved

>  <fragmenstein_mode>  (506) 
expansion

>  <fragmenstein_error>  (506) 


$$$$
C90240-P81
     RDKit          3D

 45 47  0  0  0  0  0  0  0  0999 V2000
   -4.9414  -14.0928   13.3477 C   0  0  0  0  0  0  0  0  0  0  0  0
   -5.6187  -14.4205   14.7144 C   0  0  0  0  0  0  0  0  0  0  0  0
   -4.5843  -15.1245   15.6151 C   0  0  0  0  0  0  0  0  0  0  0  0
   -6.1026  -13.1172   15.3851 C   0  0  0  0  0  0  0  0  0  0  0  0
   -7.0884  -12.4538   14.6012 O   0  0  0  0  0  0  0  0  0  0  0  0
   -6.8433  -15.4046   14.3101 C   0  0  0  0  0  0  0  0  0  0  0  0
   -7.9191  -16.0572   15.2008 C   0  0  0  0  0  0  0  0  0  0  0  0
   -7.8145  -16.3781   16.5317 N   0  0  0  0  0  0  0  0  0  0  0  0
   -8.9172  -17.0673   16.7940 C   0  0  0  0  0  0  0  0  0  0  0  0
   -9.2128  -17.6501   18.0535 C   0  0  0  0  0  0  0  0  0  0  0  0
  -10.3221  -17.5712   18.8605 C   0  0  0  0  0  0  0  0  0  0  0  0
  -10.0210  -18.3980   19.9594 C   0  0  0  0  0  0  0  0  0  0  0  0
   -8.8329  -18.9949   19.8397 N   0  0  0  0  0  0  0  0  0  0  0  0
   -8.3295  -18.4675   18.7038 N   0  0  0  0  0  0  0  0  0  0  0  0
   -9.5779  -17.3588   15.6101 N   0  0  0  0  0  0  0  0  0  0  0  0
  -10.5421  -18.5801   15.2858 C   0  0  0  0  0  0  0  0  0  0  0  0
   -9.9917  -20.5095   15.3342 C   0  0  0  0  0  0  0  0  0  0  0  0
   -9.7962  -21.6615   14.2061 C   0  0  0  0  0  0  0  0  0  0  0  0
  -10.4431  -21.2794   13.0377 O   0  0  0  0  0  0  0  0  0  0  0  0
  -10.8247  -19.9181   12.9232 C   0  0  0  0  0  0  0  0  0  0  0  0
  -11.0257  -18.4958   13.7436 C   0  0  0  0  0  0  0  0  0  0  0  0
   -9.0387  -16.5670   14.6305 N   0  0  0  0  0  0  0  0  0  0  0  0
   -5.6833  -13.7266   12.6274 H   0  0  0  0  0  0  0  0  0  0  0  0
   -4.1797  -13.3368   13.3836 H   0  0  0  0  0  0  0  0  0  0  0  0
   -4.5158  -15.0002   12.9077 H   0  0  0  0  0  0  0  0  0  0  0  0
   -5.0013  -15.2987   16.6131 H   0  0  0  0  0  0  0  0  0  0  0  0
   -3.6459  -14.5905   15.7363 H   0  0  0  0  0  0  0  0  0  0  0  0
   -4.3359  -16.1069   15.1967 H   0  0  0  0  0  0  0  0  0  0  0  0
   -5.3187  -12.3942   15.5942 H   0  0  0  0  0  0  0  0  0  0  0  0
   -6.5737  -13.3564   16.3450 H   0  0  0  0  0  0  0  0  0  0  0  0
   -6.6686  -12.1224   13.7905 H   0  0  0  0  0  0  0  0  0  0  0  0
   -6.3833  -16.2572   13.7862 H   0  0  0  0  0  0  0  0  0  0  0  0
   -7.4188  -14.8717   13.5375 H   0  0  0  0  0  0  0  0  0  0  0  0
  -11.2103  -16.9784   18.6953 H   0  0  0  0  0  0  0  0  0  0  0  0
  -10.6217  -18.6009   20.8366 H   0  0  0  0  0  0  0  0  0  0  0  0
   -7.3884  -18.7170   18.4138 H   0  0  0  0  0  0  0  0  0  0  0  0
  -11.4006  -18.1014   15.7770 H   0  0  0  0  0  0  0  0  0  0  0  0
  -10.3486  -21.3517   15.8291 H   0  0  0  0  0  0  0  0  0  0  0  0
   -9.5554  -20.6124   16.3712 H   0  0  0  0  0  0  0  0  0  0  0  0
   -8.7471  -21.9512   14.0288 H   0  0  0  0  0  0  0  0  0  0  0  0
  -10.1504  -22.6666   14.4566 H   0  0  0  0  0  0  0  0  0  0  0  0
  -10.2527  -19.6204   12.0403 H   0  0  0  0  0  0  0  0  0  0  0  0
  -11.8533  -20.1792   12.8742 H   0  0  0  0  0  0  0  0  0  0  0  0
  -10.5518  -17.6793   13.1660 H   0  0  0  0  0  0  0  0  0  0  0  0
  -11.9792  -18.1175   13.8545 H   0  0  0  0  0  0  0  0  0  0  0  0
  1  2  1  0
  2  3  1  0
  2  4  1  0
  4  5  1  0
  2  6  1  0
  6  7  1  0
  7  8  1  0
  8  9  2  0
  9 10  1  0
 10 11  2  0
 11 12  1  0
 12 13  2  0
 13 14  1  0
  9 15  1  0
 15 16  1  0
 16 17  1  0
 17 18  1  0
 18 19  1  0
 19 20  1  0
 20 21  1  0
 15 22  1  0
 22  7  2  0
 14 10  1  0
 21 16  1  0
  1 23  1  0
  1 24  1  0
  1 25  1  0
  3 26  1  0
  3 27  1  0
  3 28  1  0
  4 29  1  0
  4 30  1  0
  5 31  1  0
  6 32  1  0
  6 33  1  0
 11 34  1  0
 12 35  1  0
 14 36  1  0
 16 37  1  0
 17 38  1  0
 17 39  1  0
 18 40  1  0
 18 41  1  0
 20 42  1  0
 20 43  1  0
 21 44  1  0
 21 45  1  0
M  END
>  <Energy>  (507) 
249.33699991995084

>  <compound_id>  (507) 
90240

>  <target_id>  (507) 
1

>  <reference_id>  (507) 
81

>  <inspiration_ids>  (507) 
[112, 81]

>  <energy_score>  (507) 
172.11459878516206

>  <distance_score>  (507) 
13.883538882889491

>  <path>  (507) 
/opt/xchem-fragalysis-2/maxwin/BulkDock/SCRATCH/511016/C90240-P81/C90240-P81.minimised.mol

>  <scratch_subdir>  (507) 
/opt/xchem-fragalysis-2/maxwin/BulkDock/SCRATCH/511016/C90240-P81

>  <fragmenstein_runtime>  (507) 
20.73844623565674

>  <fragmenstein_outcome>  (507) 
too moved

>  <fragmenstein_mode>  (507) 
expansion

>  <fragmenstein_error>  (507) 


$$$$
C90243-P112
     RDKit          3D

 44 46  0  0  0  0  0  0  0  0999 V2000
   -4.9962  -15.9273   13.9612 C   0  0  0  0  0  0  0  0  0  0  0  0
   -4.7205  -16.9242   12.7461 C   0  0  0  0  0  0  0  0  0  0  0  0
   -3.4870  -17.7887   13.0544 C   0  0  0  0  0  0  0  0  0  0  0  0
   -4.4953  -15.9748   11.5327 C   0  0  0  0  0  0  0  0  0  0  0  0
   -6.0638  -17.9164   12.7070 C   0  0  0  0  0  0  0  0  0  0  0  0
   -6.5051  -19.5978   12.0973 C   0  0  0  0  0  0  0  0  0  0  0  0
   -5.6887  -20.6910   12.1974 N   0  0  0  0  0  0  0  0  0  0  0  0
   -6.4724  -21.7870   12.1854 C   0  0  0  0  0  0  0  0  0  0  0  0
   -5.9647  -23.0756   11.6516 C   0  0  0  0  0  0  0  0  0  0  0  0
   -4.8262  -23.2615   10.8825 C   0  0  0  0  0  0  0  0  0  0  0  0
   -4.7890  -24.6291   10.5748 C   0  0  0  0  0  0  0  0  0  0  0  0
   -5.8372  -25.2850   11.0740 N   0  0  0  0  0  0  0  0  0  0  0  0
   -6.5233  -24.3255   11.7194 N   0  0  0  0  0  0  0  0  0  0  0  0
   -7.8055  -21.3708   12.3308 N   0  0  0  0  0  0  0  0  0  0  0  0
   -9.1248  -22.0230   12.7293 C   0  0  0  0  0  0  0  0  0  0  0  0
   -9.2150  -22.5916   14.1403 C   0  0  0  0  0  0  0  0  0  0  0  0
   -9.8398  -24.0023   14.1679 C   0  0  0  0  0  0  0  0  0  0  0  0
   -9.3718  -24.7795   13.0739 O   0  0  0  0  0  0  0  0  0  0  0  0
  -10.0177  -24.3732   11.8883 C   0  0  0  0  0  0  0  0  0  0  0  0
  -10.1626  -22.8590   11.8941 C   0  0  0  0  0  0  0  0  0  0  0  0
   -7.7897  -20.0265   11.8562 N   0  0  0  0  0  0  0  0  0  0  0  0
   -4.4425  -14.9901   13.9499 H   0  0  0  0  0  0  0  0  0  0  0  0
   -6.0510  -15.6239   13.9422 H   0  0  0  0  0  0  0  0  0  0  0  0
   -4.8250  -16.4218   14.9239 H   0  0  0  0  0  0  0  0  0  0  0  0
   -3.7318  -18.8555   13.0407 H   0  0  0  0  0  0  0  0  0  0  0  0
   -2.7086  -17.6858   12.2979 H   0  0  0  0  0  0  0  0  0  0  0  0
   -3.1323  -17.6234   14.0706 H   0  0  0  0  0  0  0  0  0  0  0  0
   -5.4244  -15.8895   10.9572 H   0  0  0  0  0  0  0  0  0  0  0  0
   -3.7065  -16.3285   10.8619 H   0  0  0  0  0  0  0  0  0  0  0  0
   -4.2346  -14.9492   11.8091 H   0  0  0  0  0  0  0  0  0  0  0  0
   -6.9358  -17.2885   12.5190 H   0  0  0  0  0  0  0  0  0  0  0  0
   -5.9867  -18.1081   13.7835 H   0  0  0  0  0  0  0  0  0  0  0  0
   -4.1135  -22.4932   10.6145 H   0  0  0  0  0  0  0  0  0  0  0  0
   -4.0460  -25.1715   10.0053 H   0  0  0  0  0  0  0  0  0  0  0  0
   -7.3834  -24.6123   12.1693 H   0  0  0  0  0  0  0  0  0  0  0  0
   -9.7437  -21.1266   12.7870 H   0  0  0  0  0  0  0  0  0  0  0  0
   -9.7963  -21.9176   14.7460 H   0  0  0  0  0  0  0  0  0  0  0  0
   -8.2741  -22.5021   14.6670 H   0  0  0  0  0  0  0  0  0  0  0  0
  -10.9279  -23.9856   14.0978 H   0  0  0  0  0  0  0  0  0  0  0  0
   -9.6002  -24.5339   15.0798 H   0  0  0  0  0  0  0  0  0  0  0  0
  -10.9990  -24.8574   11.8182 H   0  0  0  0  0  0  0  0  0  0  0  0
   -9.4223  -24.7539   11.0564 H   0  0  0  0  0  0  0  0  0  0  0  0
  -11.1345  -22.6936   12.3814 H   0  0  0  0  0  0  0  0  0  0  0  0
  -10.3306  -22.4609   10.9106 H   0  0  0  0  0  0  0  0  0  0  0  0
  1  2  1  0
  2  3  1  0
  2  4  1  0
  2  5  1  0
  5  6  1  0
  6  7  1  0
  7  8  2  0
  8  9  1  0
  9 10  2  0
 10 11  1  0
 11 12  2  0
 12 13  1  0
  8 14  1  0
 14 15  1  0
 15 16  1  0
 16 17  1  0
 17 18  1  0
 18 19  1  0
 19 20  1  0
 14 21  1  0
 21  6  2  0
 13  9  1  0
 20 15  1  0
  1 22  1  0
  1 23  1  0
  1 24  1  0
  3 25  1  0
  3 26  1  0
  3 27  1  0
  4 28  1  0
  4 29  1  0
  4 30  1  0
  5 31  1  0
  5 32  1  0
 10 33  1  0
 11 34  1  0
 13 35  1  0
 15 36  1  0
 16 37  1  0
 16 38  1  0
 17 39  1  0
 17 40  1  0
 19 41  1  0
 19 42  1  0
 20 43  1  0
 20 44  1  0
M  END
>  <Energy>  (508) 
149.09045731636451

>  <compound_id>  (508) 
90243

>  <target_id>  (508) 
1

>  <reference_id>  (508) 
112

>  <inspiration_ids>  (508) 
[112, 81]

>  <energy_score>  (508) 
63.352906575920116

>  <distance_score>  (508) 
13.257711291425114

>  <path>  (508) 
/opt/xchem-fragalysis-2/maxwin/BulkDock/SCRATCH/511016/C90243-P112/C90243-P112.minimised.mol

>  <scratch_subdir>  (508) 
/opt/xchem-fragalysis-2/maxwin/BulkDock/SCRATCH/511016/C90243-P112

>  <fragmenstein_runtime>  (508) 
16.029139280319214

>  <fragmenstein_outcome>  (508) 
too moved

>  <fragmenstein_mode>  (508) 
expansion

>  <fragmenstein_error>  (508) 


$$$$
C90243-P81
     RDKit          3D

 44 46  0  0  0  0  0  0  0  0999 V2000
   -2.7475  -18.3526   11.6516 C   0  0  0  0  0  0  0  0  0  0  0  0
   -3.6445  -18.8867   12.8587 C   0  0  0  0  0  0  0  0  0  0  0  0
   -2.5931  -19.6135   13.7831 C   0  0  0  0  0  0  0  0  0  0  0  0
   -4.2098  -17.6302   13.5842 C   0  0  0  0  0  0  0  0  0  0  0  0
   -4.8755  -20.1275   12.2694 C   0  0  0  0  0  0  0  0  0  0  0  0
   -6.7106  -20.4906   12.5354 C   0  0  0  0  0  0  0  0  0  0  0  0
   -7.1384  -21.9302   12.9697 N   0  0  0  0  0  0  0  0  0  0  0  0
   -8.1499  -22.4128   12.2511 C   0  0  0  0  0  0  0  0  0  0  0  0
   -8.7183  -23.8081   12.0463 C   0  0  0  0  0  0  0  0  0  0  0  0
   -9.4613  -24.6387   12.8993 C   0  0  0  0  0  0  0  0  0  0  0  0
   -9.5830  -25.8875   12.2679 C   0  0  0  0  0  0  0  0  0  0  0  0
   -9.0343  -25.8688   11.0592 N   0  0  0  0  0  0  0  0  0  0  0  0
   -8.6263  -24.5964   10.9281 N   0  0  0  0  0  0  0  0  0  0  0  0
   -8.6126  -21.3161   11.6390 N   0  0  0  0  0  0  0  0  0  0  0  0
   -9.9755  -21.4115   11.1957 C   0  0  0  0  0  0  0  0  0  0  0  0
  -10.1771  -22.0715    9.8074 C   0  0  0  0  0  0  0  0  0  0  0  0
  -11.2026  -23.1910    9.6470 C   0  0  0  0  0  0  0  0  0  0  0  0
  -11.4997  -23.9066   10.8219 O   0  0  0  0  0  0  0  0  0  0  0  0
  -11.8097  -23.1774   11.9902 C   0  0  0  0  0  0  0  0  0  0  0  0
  -10.8868  -21.9827   12.3042 C   0  0  0  0  0  0  0  0  0  0  0  0
   -7.8124  -20.0873   11.7397 N   0  0  0  0  0  0  0  0  0  0  0  0
   -1.7057  -18.1660   11.9041 H   0  0  0  0  0  0  0  0  0  0  0  0
   -3.1340  -17.4236   11.2221 H   0  0  0  0  0  0  0  0  0  0  0  0
   -2.7166  -19.1102   10.8602 H   0  0  0  0  0  0  0  0  0  0  0  0
   -1.5511  -19.4930   13.4762 H   0  0  0  0  0  0  0  0  0  0  0  0
   -2.6955  -19.3123   14.8316 H   0  0  0  0  0  0  0  0  0  0  0  0
   -2.7350  -20.6984   13.7623 H   0  0  0  0  0  0  0  0  0  0  0  0
   -3.4928  -17.1468   14.2434 H   0  0  0  0  0  0  0  0  0  0  0  0
   -4.5661  -16.8725   12.8787 H   0  0  0  0  0  0  0  0  0  0  0  0
   -5.0666  -17.8948   14.2071 H   0  0  0  0  0  0  0  0  0  0  0  0
   -4.7076  -20.2037   11.1872 H   0  0  0  0  0  0  0  0  0  0  0  0
   -4.2913  -21.0070   12.4011 H   0  0  0  0  0  0  0  0  0  0  0  0
   -9.7910  -24.3891   13.8988 H   0  0  0  0  0  0  0  0  0  0  0  0
  -10.0379  -26.7974   12.6365 H   0  0  0  0  0  0  0  0  0  0  0  0
   -8.3968  -24.3295    9.9900 H   0  0  0  0  0  0  0  0  0  0  0  0
  -10.0576  -20.3343   11.2026 H   0  0  0  0  0  0  0  0  0  0  0  0
   -9.2535  -22.5165    9.4910 H   0  0  0  0  0  0  0  0  0  0  0  0
  -10.3352  -21.3277    9.0171 H   0  0  0  0  0  0  0  0  0  0  0  0
  -12.1143  -22.8566    9.1469 H   0  0  0  0  0  0  0  0  0  0  0  0
  -10.7964  -23.9231    8.9367 H   0  0  0  0  0  0  0  0  0  0  0  0
  -11.7867  -23.8806   12.8283 H   0  0  0  0  0  0  0  0  0  0  0  0
  -12.8735  -22.9453   11.9898 H   0  0  0  0  0  0  0  0  0  0  0  0
  -10.3420  -22.2057   13.2277 H   0  0  0  0  0  0  0  0  0  0  0  0
  -11.4529  -21.1333   12.6654 H   0  0  0  0  0  0  0  0  0  0  0  0
  1  2  1  0
  2  3  1  0
  2  4  1  0
  2  5  1  0
  5  6  1  0
  6  7  1  0
  7  8  2  0
  8  9  1  0
  9 10  2  0
 10 11  1  0
 11 12  2  0
 12 13  1  0
  8 14  1  0
 14 15  1  0
 15 16  1  0
 16 17  1  0
 17 18  1  0
 18 19  1  0
 19 20  1  0
 14 21  1  0
 21  6  2  0
 13  9  1  0
 20 15  1  0
  1 22  1  0
  1 23  1  0
  1 24  1  0
  3 25  1  0
  3 26  1  0
  3 27  1  0
  4 28  1  0
  4 29  1  0
  4 30  1  0
  5 31  1  0
  5 32  1  0
 10 33  1  0
 11 34  1  0
 13 35  1  0
 15 36  1  0
 16 37  1  0
 16 38  1  0
 17 39  1  0
 17 40  1  0
 19 41  1  0
 19 42  1  0
 20 43  1  0
 20 44  1  0
M  END
>  <Energy>  (509) 
224.6608003531737

>  <compound_id>  (509) 
90243

>  <target_id>  (509) 
1

>  <reference_id>  (509) 
81

>  <inspiration_ids>  (509) 
[112, 81]

>  <energy_score>  (509) 
138.92324961272817

>  <distance_score>  (509) 
13.331929008302941

>  <path>  (509) 
/opt/xchem-fragalysis-2/maxwin/BulkDock/SCRATCH/511016/C90243-P81/C90243-P81.minimised.mol

>  <scratch_subdir>  (509) 
/opt/xchem-fragalysis-2/maxwin/BulkDock/SCRATCH/511016/C90243-P81

>  <fragmenstein_runtime>  (509) 
18.831557512283325

>  <fragmenstein_outcome>  (509) 
too moved

>  <fragmenstein_mode>  (509) 
expansion

>  <fragmenstein_error>  (509) 


$$$$
C90246-P112
     RDKit          3D

 33 34  0  0  0  0  0  0  0  0999 V2000
    2.7426  -13.6171    6.6801 O   0  0  0  0  0  0  0  0  0  0  0  0
    3.0853  -14.3487    7.6076 C   0  0  0  0  0  0  0  0  0  0  0  0
    4.2647  -13.9354    8.4432 C   0  0  0  0  0  0  0  0  0  0  0  0
    4.6368  -12.6288    8.6155 C   0  0  0  0  0  0  0  0  0  0  0  0
    5.7977  -12.0758    9.4581 C   0  0  0  0  0  0  0  0  0  0  0  0
    5.6212  -10.5828    9.8419 C   0  0  0  0  0  0  0  0  0  0  0  0
    6.9292   -9.9042   10.2666 C   0  0  0  0  0  0  0  0  0  0  0  0
    7.8655  -10.8700   10.7338 O   0  0  0  0  0  0  0  0  0  0  0  0
    8.2922  -11.7491    9.6865 C   0  0  0  0  0  0  0  0  0  0  0  0
    7.1553  -12.2298    8.7732 C   0  0  0  0  0  0  0  0  0  0  0  0
    2.3843  -15.5104    7.8359 O   0  0  0  0  0  0  0  0  0  0  0  0
    2.6064  -16.5776    8.8045 C   0  0  0  0  0  0  0  0  0  0  0  0
    1.3220  -17.3756    9.0738 C   0  0  0  0  0  0  0  0  0  0  0  0
    0.8623  -18.0058   10.2247 C   0  0  0  0  0  0  0  0  0  0  0  0
   -0.3524  -18.6321    9.8788 C   0  0  0  0  0  0  0  0  0  0  0  0
   -0.6665  -18.4227    8.6006 N   0  0  0  0  0  0  0  0  0  0  0  0
    0.3734  -17.6920    8.1274 N   0  0  0  0  0  0  0  0  0  0  0  0
    4.8374  -14.7436    8.8752 H   0  0  0  0  0  0  0  0  0  0  0  0
    4.0319  -11.8752    8.1061 H   0  0  0  0  0  0  0  0  0  0  0  0
    5.8244  -12.6548   10.3908 H   0  0  0  0  0  0  0  0  0  0  0  0
    5.1813  -10.0060    9.0187 H   0  0  0  0  0  0  0  0  0  0  0  0
    4.8996  -10.5171   10.6629 H   0  0  0  0  0  0  0  0  0  0  0  0
    6.7318   -9.1885   11.0703 H   0  0  0  0  0  0  0  0  0  0  0  0
    7.3709   -9.3453    9.4328 H   0  0  0  0  0  0  0  0  0  0  0  0
    8.7601  -12.6110   10.1742 H   0  0  0  0  0  0  0  0  0  0  0  0
    9.0720  -11.2519    9.0986 H   0  0  0  0  0  0  0  0  0  0  0  0
    7.3441  -13.2655    8.4668 H   0  0  0  0  0  0  0  0  0  0  0  0
    7.1675  -11.6352    7.8497 H   0  0  0  0  0  0  0  0  0  0  0  0
    3.3580  -17.2534    8.3839 H   0  0  0  0  0  0  0  0  0  0  0  0
    2.9811  -16.1606    9.7345 H   0  0  0  0  0  0  0  0  0  0  0  0
    1.3579  -18.0207   11.1852 H   0  0  0  0  0  0  0  0  0  0  0  0
   -1.0103  -19.2281   10.4978 H   0  0  0  0  0  0  0  0  0  0  0  0
    0.3620  -17.4083    7.1521 H   0  0  0  0  0  0  0  0  0  0  0  0
  1  2  2  0
  2  3  1  0
  3  4  2  3
  4  5  1  0
  5  6  1  0
  6  7  1  0
  7  8  1  0
  8  9  1  0
  9 10  1  0
  2 11  1  0
 11 12  1  0
 12 13  1  0
 13 14  2  0
 14 15  1  0
 15 16  2  0
 16 17  1  0
 10  5  1  0
 17 13  1  0
  3 18  1  0
  4 19  1  0
  5 20  1  0
  6 21  1  0
  6 22  1  0
  7 23  1  0
  7 24  1  0
  9 25  1  0
  9 26  1  0
 10 27  1  0
 10 28  1  0
 12 29  1  0
 12 30  1  0
 14 31  1  0
 15 32  1  0
 17 33  1  0
M  END
>  <Energy>  (510) 
31.421382740973741

>  <compound_id>  (510) 
90246

>  <target_id>  (510) 
1

>  <reference_id>  (510) 
112

>  <inspiration_ids>  (510) 
[112, 81]

>  <energy_score>  (510) 
-3.695082716950708

>  <distance_score>  (510) 
14.52296482419072

>  <path>  (510) 
/opt/xchem-fragalysis-2/maxwin/BulkDock/SCRATCH/511016/C90246-P112/C90246-P112.minimised.mol

>  <scratch_subdir>  (510) 
/opt/xchem-fragalysis-2/maxwin/BulkDock/SCRATCH/511016/C90246-P112

>  <fragmenstein_runtime>  (510) 
7.9362876415252686

>  <fragmenstein_outcome>  (510) 
too moved

>  <fragmenstein_mode>  (510) 
expansion

>  <fragmenstein_error>  (510) 


$$$$
C90246-P81
     RDKit          3D

 33 34  0  0  0  0  0  0  0  0999 V2000
    4.3553  -12.8459   19.0290 O   0  0  0  0  0  0  0  0  0  0  0  0
    3.6216  -12.8079   18.0277 C   0  0  0  0  0  0  0  0  0  0  0  0
    3.6826  -11.5232   16.4999 C   0  0  0  0  0  0  0  0  0  0  0  0
    4.1927  -11.0294   15.0810 C   0  0  0  0  0  0  0  0  0  0  0  0
    5.3050  -10.8264   13.6589 C   0  0  0  0  0  0  0  0  0  0  0  0
    6.7380   -9.9701   13.6853 C   0  0  0  0  0  0  0  0  0  0  0  0
    6.7555   -8.6425   12.9440 C   0  0  0  0  0  0  0  0  0  0  0  0
    6.6276   -8.8452   11.5509 O   0  0  0  0  0  0  0  0  0  0  0  0
    5.6430   -9.8310   11.2513 C   0  0  0  0  0  0  0  0  0  0  0  0
    4.6778  -10.0314   12.4222 C   0  0  0  0  0  0  0  0  0  0  0  0
    2.4066  -14.0985   18.0007 O   0  0  0  0  0  0  0  0  0  0  0  0
    2.7750  -15.6661   17.4835 C   0  0  0  0  0  0  0  0  0  0  0  0
    2.0879  -17.4903   16.9645 C   0  0  0  0  0  0  0  0  0  0  0  0
    2.5529  -18.4763   16.0024 C   0  0  0  0  0  0  0  0  0  0  0  0
    1.8342  -19.6840   16.0907 C   0  0  0  0  0  0  0  0  0  0  0  0
    0.9858  -19.6492   17.0962 N   0  0  0  0  0  0  0  0  0  0  0  0
    1.1978  -18.4357   17.6452 N   0  0  0  0  0  0  0  0  0  0  0  0
    3.0535  -10.7701   16.9684 H   0  0  0  0  0  0  0  0  0  0  0  0
    3.5507  -10.3279   14.5748 H   0  0  0  0  0  0  0  0  0  0  0  0
    5.5435  -11.8453   13.3334 H   0  0  0  0  0  0  0  0  0  0  0  0
    7.1662   -9.7531   14.6628 H   0  0  0  0  0  0  0  0  0  0  0  0
    7.4690  -10.6148   13.1708 H   0  0  0  0  0  0  0  0  0  0  0  0
    5.9841   -7.9554   13.3029 H   0  0  0  0  0  0  0  0  0  0  0  0
    7.6939   -8.1371   13.1082 H   0  0  0  0  0  0  0  0  0  0  0  0
    5.0994   -9.4808   10.3676 H   0  0  0  0  0  0  0  0  0  0  0  0
    6.1413  -10.7684   10.9810 H   0  0  0  0  0  0  0  0  0  0  0  0
    4.4215   -9.0384   12.7896 H   0  0  0  0  0  0  0  0  0  0  0  0
    3.7648  -10.4086   11.9816 H   0  0  0  0  0  0  0  0  0  0  0  0
    2.8528  -15.4725   16.4546 H   0  0  0  0  0  0  0  0  0  0  0  0
    3.7534  -15.5851   17.9731 H   0  0  0  0  0  0  0  0  0  0  0  0
    3.3576  -18.3161   15.2928 H   0  0  0  0  0  0  0  0  0  0  0  0
    1.9236  -20.5745   15.4837 H   0  0  0  0  0  0  0  0  0  0  0  0
    0.5467  -18.2397   18.3900 H   0  0  0  0  0  0  0  0  0  0  0  0
  1  2  2  0
  2  3  1  0
  3  4  2  3
  4  5  1  0
  5  6  1  0
  6  7  1  0
  7  8  1  0
  8  9  1  0
  9 10  1  0
  2 11  1  0
 11 12  1  0
 12 13  1  0
 13 14  2  0
 14 15  1  0
 15 16  2  0
 16 17  1  0
 10  5  1  0
 17 13  1  0
  3 18  1  0
  4 19  1  0
  5 20  1  0
  6 21  1  0
  6 22  1  0
  7 23  1  0
  7 24  1  0
  9 25  1  0
  9 26  1  0
 10 27  1  0
 10 28  1  0
 12 29  1  0
 12 30  1  0
 14 31  1  0
 15 32  1  0
 17 33  1  0
M  END
>  <Energy>  (511) 
446.17692226691048

>  <compound_id>  (511) 
90246

>  <target_id>  (511) 
1

>  <reference_id>  (511) 
81

>  <inspiration_ids>  (511) 
[112, 81]

>  <energy_score>  (511) 
411.06045680897836

>  <distance_score>  (511) 
14.293545151358849

>  <path>  (511) 
/opt/xchem-fragalysis-2/maxwin/BulkDock/SCRATCH/511016/C90246-P81/C90246-P81.minimised.mol

>  <scratch_subdir>  (511) 
/opt/xchem-fragalysis-2/maxwin/BulkDock/SCRATCH/511016/C90246-P81

>  <fragmenstein_runtime>  (511) 
8.746249675750732

>  <fragmenstein_outcome>  (511) 
too moved

>  <fragmenstein_mode>  (511) 
expansion

>  <fragmenstein_error>  (511) 


$$$$
C90247-P112
     RDKit          3D

 49 50  0  0  0  0  0  0  0  0999 V2000
    1.5451  -18.1011   10.0799 C   0  0  0  0  0  0  0  0  0  0  0  0
    1.0757  -18.3489   11.5142 C   0  0  0  0  0  0  0  0  0  0  0  0
   -0.2110  -17.6415   11.9562 N   0  0  0  0  0  0  0  0  0  0  0  0
    1.1462  -15.8986   12.0590 C   0  0  0  0  0  0  0  0  0  0  0  0
    2.4699  -14.1337   12.8443 C   0  0  0  0  0  0  0  0  0  0  0  0
    3.7122  -16.0149   12.5941 C   0  0  0  0  0  0  0  0  0  0  0  0
    4.2434  -12.8421   13.9199 N   0  0  0  0  0  0  0  0  0  0  0  0
    4.5458  -11.0680   13.9550 C   0  0  0  0  0  0  0  0  0  0  0  0
    3.7890  -10.2252   13.5378 O   0  0  0  0  0  0  0  0  0  0  0  0
    5.8553  -10.4244   14.3414 C   0  0  0  0  0  0  0  0  0  0  0  0
    7.8168   -9.9857   14.4922 C   0  0  0  0  0  0  0  0  0  0  0  0
    8.3688   -9.0823   15.6328 C   0  0  0  0  0  0  0  0  0  0  0  0
    7.5294   -7.5633   15.1355 C   0  0  0  0  0  0  0  0  0  0  0  0
    6.3607   -7.6580   14.0647 C   0  0  0  0  0  0  0  0  0  0  0  0
    5.3239   -8.7947   14.0920 O   0  0  0  0  0  0  0  0  0  0  0  0
   -1.1912  -18.7920   13.4306 C   0  0  0  0  0  0  0  0  0  0  0  0
   -0.9868  -18.6490   14.6183 O   0  0  0  0  0  0  0  0  0  0  0  0
   -3.0010  -20.2281   12.9537 C   0  0  0  0  0  0  0  0  0  0  0  0
   -4.7414  -20.0920   12.5848 C   0  0  0  0  0  0  0  0  0  0  0  0
   -5.8563  -19.2986   12.5734 C   0  0  0  0  0  0  0  0  0  0  0  0
   -6.8702  -19.9495   11.8306 C   0  0  0  0  0  0  0  0  0  0  0  0
   -6.5586  -21.2114   11.6774 N   0  0  0  0  0  0  0  0  0  0  0  0
   -5.2905  -21.2372   12.0169 N   0  0  0  0  0  0  0  0  0  0  0  0
    0.8124  -17.5456    9.4873 H   0  0  0  0  0  0  0  0  0  0  0  0
    1.7335  -19.0556    9.5756 H   0  0  0  0  0  0  0  0  0  0  0  0
    2.4881  -17.5512   10.0491 H   0  0  0  0  0  0  0  0  0  0  0  0
    1.8637  -18.4786   12.2508 H   0  0  0  0  0  0  0  0  0  0  0  0
    0.7649  -19.3998   11.5120 H   0  0  0  0  0  0  0  0  0  0  0  0
    1.4254  -15.9112   10.9909 H   0  0  0  0  0  0  0  0  0  0  0  0
    0.2704  -15.2124   11.9518 H   0  0  0  0  0  0  0  0  0  0  0  0
    1.6037  -13.6299   12.2846 H   0  0  0  0  0  0  0  0  0  0  0  0
    4.7221  -15.6731   12.3699 H   0  0  0  0  0  0  0  0  0  0  0  0
    3.5455  -16.6834   11.6768 H   0  0  0  0  0  0  0  0  0  0  0  0
    3.9022  -16.8411   13.3831 H   0  0  0  0  0  0  0  0  0  0  0  0
    5.0997  -13.3352   14.2499 H   0  0  0  0  0  0  0  0  0  0  0  0
    6.0455  -10.7491   13.3196 H   0  0  0  0  0  0  0  0  0  0  0  0
    8.6394  -10.6885   14.2910 H   0  0  0  0  0  0  0  0  0  0  0  0
    7.5910   -9.2397   13.7676 H   0  0  0  0  0  0  0  0  0  0  0  0
    8.2524   -9.5629   16.6151 H   0  0  0  0  0  0  0  0  0  0  0  0
    9.4613   -8.9491   15.6240 H   0  0  0  0  0  0  0  0  0  0  0  0
    8.3371   -6.9541   14.7712 H   0  0  0  0  0  0  0  0  0  0  0  0
    7.0566   -6.9814   15.9404 H   0  0  0  0  0  0  0  0  0  0  0  0
    6.8048   -7.5070   13.0819 H   0  0  0  0  0  0  0  0  0  0  0  0
    5.6531   -6.8317   14.0825 H   0  0  0  0  0  0  0  0  0  0  0  0
   -3.1773  -20.4017   11.9103 H   0  0  0  0  0  0  0  0  0  0  0  0
   -3.3629  -21.0460   13.7448 H   0  0  0  0  0  0  0  0  0  0  0  0
   -6.0162  -18.2826   12.8984 H   0  0  0  0  0  0  0  0  0  0  0  0
   -7.8294  -19.5757   11.4959 H   0  0  0  0  0  0  0  0  0  0  0  0
   -4.8698  -22.1563   12.0774 H   0  0  0  0  0  0  0  0  0  0  0  0
  1  2  1  0
  2  3  1  0
  3  4  1  0
  4  5  1  0
  5  6  1  0
  5  7  1  0
  7  8  1  0
  8  9  2  0
  8 10  1  0
 10 11  1  0
 11 12  1  0
 12 13  1  0
 13 14  1  0
 14 15  1  0
  3 16  1  0
 16 17  2  0
 16 18  1  0
 18 19  1  0
 19 20  2  0
 20 21  1  0
 21 22  2  0
 22 23  1  0
 15 10  1  0
 23 19  1  0
  1 24  1  0
  1 25  1  0
  1 26  1  0
  2 27  1  0
  2 28  1  0
  4 29  1  0
  4 30  1  0
  5 31  1  0
  6 32  1  0
  6 33  1  0
  6 34  1  0
  7 35  1  0
 10 36  1  0
 11 37  1  0
 11 38  1  0
 12 39  1  0
 12 40  1  0
 13 41  1  0
 13 42  1  0
 14 43  1  0
 14 44  1  0
 18 45  1  0
 18 46  1  0
 20 47  1  0
 21 48  1  0
 23 49  1  0
M  END
>  <Energy>  (512) 
2168.034956205463

>  <compound_id>  (512) 
90247

>  <target_id>  (512) 
1

>  <reference_id>  (512) 
112

>  <inspiration_ids>  (512) 
[112, 81]

>  <energy_score>  (512) 
2067.3383819096425

>  <distance_score>  (512) 
9.004626535478728

>  <path>  (512) 
/opt/xchem-fragalysis-2/maxwin/BulkDock/SCRATCH/511016/C90247-P112/C90247-P112.minimised.mol

>  <scratch_subdir>  (512) 
/opt/xchem-fragalysis-2/maxwin/BulkDock/SCRATCH/511016/C90247-P112

>  <fragmenstein_runtime>  (512) 
17.117693662643433

>  <fragmenstein_outcome>  (512) 
too moved

>  <fragmenstein_mode>  (512) 
expansion

>  <fragmenstein_error>  (512) 


$$$$
C90247-P81
     RDKit          3D

 49 50  0  0  0  0  0  0  0  0999 V2000
    1.2424  -19.3866   13.6042 C   0  0  0  0  0  0  0  0  0  0  0  0
   -0.1128  -19.2205   12.8325 C   0  0  0  0  0  0  0  0  0  0  0  0
   -1.6573  -18.2037   13.2560 N   0  0  0  0  0  0  0  0  0  0  0  0
   -0.1901  -16.4594   12.4419 C   0  0  0  0  0  0  0  0  0  0  0  0
    0.5703  -14.2438   13.0766 C   0  0  0  0  0  0  0  0  0  0  0  0
    0.0838  -13.8152   11.7184 C   0  0  0  0  0  0  0  0  0  0  0  0
    1.2155  -12.0168   13.1304 N   0  0  0  0  0  0  0  0  0  0  0  0
    2.9506  -10.9038   13.9213 C   0  0  0  0  0  0  0  0  0  0  0  0
    3.8147  -11.6577   14.6696 O   0  0  0  0  0  0  0  0  0  0  0  0
    3.8837   -8.9523   13.7118 C   0  0  0  0  0  0  0  0  0  0  0  0
    5.5001   -7.7276   13.8649 C   0  0  0  0  0  0  0  0  0  0  0  0
    6.0886   -6.6308   15.4390 C   0  0  0  0  0  0  0  0  0  0  0  0
    4.8862   -5.7652   15.8642 C   0  0  0  0  0  0  0  0  0  0  0  0
    3.7450   -6.1539   14.9665 C   0  0  0  0  0  0  0  0  0  0  0  0
    3.3997   -7.6909   14.8604 O   0  0  0  0  0  0  0  0  0  0  0  0
   -3.5091  -19.1529   12.4465 C   0  0  0  0  0  0  0  0  0  0  0  0
   -3.7385  -18.7307   11.3004 O   0  0  0  0  0  0  0  0  0  0  0  0
   -4.6167  -20.1406   12.8177 C   0  0  0  0  0  0  0  0  0  0  0  0
   -6.4487  -20.0693   12.3955 C   0  0  0  0  0  0  0  0  0  0  0  0
   -7.4716  -21.0686   12.5438 C   0  0  0  0  0  0  0  0  0  0  0  0
   -8.5622  -20.7065   11.6389 C   0  0  0  0  0  0  0  0  0  0  0  0
   -8.4266  -19.4466   11.2221 N   0  0  0  0  0  0  0  0  0  0  0  0
   -7.1605  -19.1280   11.6427 N   0  0  0  0  0  0  0  0  0  0  0  0
    2.0662  -18.9602   13.0184 H   0  0  0  0  0  0  0  0  0  0  0  0
    1.5580  -20.4232   13.7447 H   0  0  0  0  0  0  0  0  0  0  0  0
    1.2380  -19.0350   14.6343 H   0  0  0  0  0  0  0  0  0  0  0  0
   -0.2777  -19.9112   12.0858 H   0  0  0  0  0  0  0  0  0  0  0  0
    0.2665  -18.5731   12.0325 H   0  0  0  0  0  0  0  0  0  0  0  0
   -0.3410  -16.4351   11.3342 H   0  0  0  0  0  0  0  0  0  0  0  0
    0.8072  -16.9375   12.4399 H   0  0  0  0  0  0  0  0  0  0  0  0
   -0.3035  -13.9926   13.6591 H   0  0  0  0  0  0  0  0  0  0  0  0
    0.9900  -13.5728   11.2484 H   0  0  0  0  0  0  0  0  0  0  0  0
   -0.5339  -14.5098   11.1683 H   0  0  0  0  0  0  0  0  0  0  0  0
   -0.3558  -12.8298   11.6911 H   0  0  0  0  0  0  0  0  0  0  0  0
    0.6861  -11.3876   12.5094 H   0  0  0  0  0  0  0  0  0  0  0  0
    4.7431   -9.6233   13.9775 H   0  0  0  0  0  0  0  0  0  0  0  0
    5.2710   -6.9569   13.1251 H   0  0  0  0  0  0  0  0  0  0  0  0
    6.4754   -8.1855   13.7044 H   0  0  0  0  0  0  0  0  0  0  0  0
    7.1074   -6.2734   15.5575 H   0  0  0  0  0  0  0  0  0  0  0  0
    6.2930   -7.1987   16.3483 H   0  0  0  0  0  0  0  0  0  0  0  0
    5.0192   -4.6980   15.7044 H   0  0  0  0  0  0  0  0  0  0  0  0
    4.6321   -5.9420   16.9155 H   0  0  0  0  0  0  0  0  0  0  0  0
    2.8576   -5.6830   15.4129 H   0  0  0  0  0  0  0  0  0  0  0  0
    3.9069   -5.6898   13.9874 H   0  0  0  0  0  0  0  0  0  0  0  0
   -5.1336  -19.1719   13.0165 H   0  0  0  0  0  0  0  0  0  0  0  0
   -4.5069  -20.7341   11.9326 H   0  0  0  0  0  0  0  0  0  0  0  0
   -7.4077  -21.9934   13.0670 H   0  0  0  0  0  0  0  0  0  0  0  0
   -9.4419  -21.2834   11.3980 H   0  0  0  0  0  0  0  0  0  0  0  0
   -6.7729  -18.2695   11.2935 H   0  0  0  0  0  0  0  0  0  0  0  0
  1  2  1  0
  2  3  1  0
  3  4  1  0
  4  5  1  0
  5  6  1  0
  5  7  1  0
  7  8  1  0
  8  9  2  0
  8 10  1  0
 10 11  1  0
 11 12  1  0
 12 13  1  0
 13 14  1  0
 14 15  1  0
  3 16  1  0
 16 17  2  0
 16 18  1  0
 18 19  1  0
 19 20  2  0
 20 21  1  0
 21 22  2  0
 22 23  1  0
 15 10  1  0
 23 19  1  0
  1 24  1  0
  1 25  1  0
  1 26  1  0
  2 27  1  0
  2 28  1  0
  4 29  1  0
  4 30  1  0
  5 31  1  0
  6 32  1  0
  6 33  1  0
  6 34  1  0
  7 35  1  0
 10 36  1  0
 11 37  1  0
 11 38  1  0
 12 39  1  0
 12 40  1  0
 13 41  1  0
 13 42  1  0
 14 43  1  0
 14 44  1  0
 18 45  1  0
 18 46  1  0
 20 47  1  0
 21 48  1  0
 23 49  1  0
M  END
>  <Energy>  (513) 
2549.1556988482894

>  <compound_id>  (513) 
90247

>  <target_id>  (513) 
1

>  <reference_id>  (513) 
81

>  <inspiration_ids>  (513) 
[112, 81]

>  <energy_score>  (513) 
2448.4591245524966

>  <distance_score>  (513) 
8.636259025142802

>  <path>  (513) 
/opt/xchem-fragalysis-2/maxwin/BulkDock/SCRATCH/511016/C90247-P81/C90247-P81.minimised.mol

>  <scratch_subdir>  (513) 
/opt/xchem-fragalysis-2/maxwin/BulkDock/SCRATCH/511016/C90247-P81

>  <fragmenstein_runtime>  (513) 
18.807990074157715

>  <fragmenstein_outcome>  (513) 
too moved

>  <fragmenstein_mode>  (513) 
expansion

>  <fragmenstein_error>  (513) 


$$$$
C90248-P112
     RDKit          3D

 46 47  0  0  0  0  0  0  0  0999 V2000
   -1.5866  -15.0225   10.7959 C   0  0  0  0  0  0  0  0  0  0  0  0
   -0.2360  -14.5498   11.3661 C   0  0  0  0  0  0  0  0  0  0  0  0
    0.0324  -12.8339   11.4362 C   0  0  0  0  0  0  0  0  0  0  0  0
    1.2200  -11.9979   11.2813 N   0  0  0  0  0  0  0  0  0  0  0  0
    1.4057  -10.6055   11.4586 C   0  0  0  0  0  0  0  0  0  0  0  0
    0.6313   -9.7737   11.6827 O   0  0  0  0  0  0  0  0  0  0  0  0
    3.1150   -9.8956   11.5263 C   0  0  0  0  0  0  0  0  0  0  0  0
    3.2682   -7.9496   11.4915 C   0  0  0  0  0  0  0  0  0  0  0  0
    3.8901   -6.6598   12.2269 C   0  0  0  0  0  0  0  0  0  0  0  0
    4.5815   -7.1100   13.4600 C   0  0  0  0  0  0  0  0  0  0  0  0
    4.3677   -8.4786   13.7936 O   0  0  0  0  0  0  0  0  0  0  0  0
    4.0786   -9.8420   13.2488 C   0  0  0  0  0  0  0  0  0  0  0  0
    0.5977  -15.8921   11.3089 N   0  0  0  0  0  0  0  0  0  0  0  0
    1.1658  -16.6414   10.1591 C   0  0  0  0  0  0  0  0  0  0  0  0
    1.2048  -16.3685    8.9883 O   0  0  0  0  0  0  0  0  0  0  0  0
    1.6823  -18.0569   10.6809 C   0  0  0  0  0  0  0  0  0  0  0  0
    1.5163  -19.2818    9.7248 C   0  0  0  0  0  0  0  0  0  0  0  0
    1.0000  -20.6109   10.2991 C   0  0  0  0  0  0  0  0  0  0  0  0
    0.3656  -21.6660    9.6525 C   0  0  0  0  0  0  0  0  0  0  0  0
   -0.0038  -22.5760   10.6623 C   0  0  0  0  0  0  0  0  0  0  0  0
    0.3728  -22.1510   11.8677 N   0  0  0  0  0  0  0  0  0  0  0  0
    1.0271  -20.9957   11.6203 N   0  0  0  0  0  0  0  0  0  0  0  0
   -1.3227  -15.9483   10.3148 H   0  0  0  0  0  0  0  0  0  0  0  0
   -2.2108  -14.6586    9.9958 H   0  0  0  0  0  0  0  0  0  0  0  0
   -2.4337  -15.0183   11.4415 H   0  0  0  0  0  0  0  0  0  0  0  0
   -0.3834  -14.5851   12.4263 H   0  0  0  0  0  0  0  0  0  0  0  0
   -0.7519  -12.1856   11.1175 H   0  0  0  0  0  0  0  0  0  0  0  0
   -0.0699  -12.7007   12.5252 H   0  0  0  0  0  0  0  0  0  0  0  0
    2.0861  -12.4077   11.0119 H   0  0  0  0  0  0  0  0  0  0  0  0
    3.6529  -10.4043   10.7088 H   0  0  0  0  0  0  0  0  0  0  0  0
    3.9992   -8.0459   10.6572 H   0  0  0  0  0  0  0  0  0  0  0  0
    2.2364   -7.5547   11.2302 H   0  0  0  0  0  0  0  0  0  0  0  0
    4.5152   -6.1104   11.5680 H   0  0  0  0  0  0  0  0  0  0  0  0
    3.2688   -5.7329   12.2091 H   0  0  0  0  0  0  0  0  0  0  0  0
    5.6538   -7.0136   13.4082 H   0  0  0  0  0  0  0  0  0  0  0  0
    4.2609   -6.4496   14.2759 H   0  0  0  0  0  0  0  0  0  0  0  0
    5.0162  -10.4389   13.2776 H   0  0  0  0  0  0  0  0  0  0  0  0
    3.5458  -10.3166   14.0559 H   0  0  0  0  0  0  0  0  0  0  0  0
    0.6679  -16.4555   12.1344 H   0  0  0  0  0  0  0  0  0  0  0  0
    2.7443  -17.9337   10.9231 H   0  0  0  0  0  0  0  0  0  0  0  0
    1.1501  -18.2990   11.6029 H   0  0  0  0  0  0  0  0  0  0  0  0
    0.8922  -19.0062    8.8667 H   0  0  0  0  0  0  0  0  0  0  0  0
    2.5061  -19.4979    9.2995 H   0  0  0  0  0  0  0  0  0  0  0  0
    0.1584  -21.7345    8.5937 H   0  0  0  0  0  0  0  0  0  0  0  0
   -0.5401  -23.5117   10.5721 H   0  0  0  0  0  0  0  0  0  0  0  0
    1.4348  -20.5076   12.4115 H   0  0  0  0  0  0  0  0  0  0  0  0
  1  2  1  0
  2  3  1  0
  3  4  1  0
  4  5  1  0
  5  6  2  0
  5  7  1  0
  7  8  1  0
  8  9  1  0
  9 10  1  0
 10 11  1  0
 11 12  1  0
  2 13  1  0
 13 14  1  0
 14 15  2  0
 14 16  1  0
 16 17  1  0
 17 18  1  0
 18 19  2  0
 19 20  1  0
 20 21  2  0
 21 22  1  0
 12  7  1  0
 22 18  1  0
  1 23  1  0
  1 24  1  0
  1 25  1  0
  2 26  1  0
  3 27  1  0
  3 28  1  0
  4 29  1  0
  7 30  1  0
  8 31  1  0
  8 32  1  0
  9 33  1  0
  9 34  1  0
 10 35  1  0
 10 36  1  0
 12 37  1  0
 12 38  1  0
 13 39  1  0
 16 40  1  0
 16 41  1  0
 17 42  1  0
 17 43  1  0
 19 44  1  0
 20 45  1  0
 22 46  1  0
M  END
>  <Energy>  (514) 
305.94277252328891

>  <compound_id>  (514) 
90248

>  <target_id>  (514) 
1

>  <reference_id>  (514) 
112

>  <inspiration_ids>  (514) 
[112, 81]

>  <energy_score>  (514) 
284.15900161805183

>  <distance_score>  (514) 
12.712150672136342

>  <path>  (514) 
/opt/xchem-fragalysis-2/maxwin/BulkDock/SCRATCH/511016/C90248-P112/C90248-P112.minimised.mol

>  <scratch_subdir>  (514) 
/opt/xchem-fragalysis-2/maxwin/BulkDock/SCRATCH/511016/C90248-P112

>  <fragmenstein_runtime>  (514) 
20.872780084609985

>  <fragmenstein_outcome>  (514) 
too moved

>  <fragmenstein_mode>  (514) 
expansion

>  <fragmenstein_error>  (514) 


$$$$
C90248-P81
     RDKit          3D

 46 47  0  0  0  0  0  0  0  0999 V2000
    2.4630  -10.7002   11.4796 C   0  0  0  0  0  0  0  0  0  0  0  0
    2.8200  -10.8125   13.1760 C   0  0  0  0  0  0  0  0  0  0  0  0
    4.6395   -9.9812   13.7386 C   0  0  0  0  0  0  0  0  0  0  0  0
    5.5813   -8.1875   13.9544 N   0  0  0  0  0  0  0  0  0  0  0  0
    7.0551   -7.6553   15.0282 C   0  0  0  0  0  0  0  0  0  0  0  0
    7.6030   -8.4866   15.6324 O   0  0  0  0  0  0  0  0  0  0  0  0
    7.8308   -6.1625   15.3700 C   0  0  0  0  0  0  0  0  0  0  0  0
    8.8417   -4.3675   15.0770 C   0  0  0  0  0  0  0  0  0  0  0  0
   10.5026   -3.9645   15.2182 C   0  0  0  0  0  0  0  0  0  0  0  0
   11.3504   -4.9664   16.0358 C   0  0  0  0  0  0  0  0  0  0  0  0
   11.1021   -6.4915   15.6816 O   0  0  0  0  0  0  0  0  0  0  0  0
    9.4972   -7.3203   15.3773 C   0  0  0  0  0  0  0  0  0  0  0  0
    1.3311  -12.0515   13.9083 N   0  0  0  0  0  0  0  0  0  0  0  0
    0.2284  -13.0862   13.0994 C   0  0  0  0  0  0  0  0  0  0  0  0
    0.1079  -13.2749   11.9013 O   0  0  0  0  0  0  0  0  0  0  0  0
   -1.1026  -13.9765   14.2200 C   0  0  0  0  0  0  0  0  0  0  0  0
   -2.6590  -14.9813   15.0920 C   0  0  0  0  0  0  0  0  0  0  0  0
   -3.9716  -16.3317   15.3755 C   0  0  0  0  0  0  0  0  0  0  0  0
   -5.1687  -16.8107   14.7734 C   0  0  0  0  0  0  0  0  0  0  0  0
   -6.0715  -17.1730   15.7912 C   0  0  0  0  0  0  0  0  0  0  0  0
   -5.4674  -17.2612   16.9567 N   0  0  0  0  0  0  0  0  0  0  0  0
   -4.3117  -16.6474   16.7099 N   0  0  0  0  0  0  0  0  0  0  0  0
    2.8141  -11.5458   10.8737 H   0  0  0  0  0  0  0  0  0  0  0  0
    2.9351   -9.8565   11.0008 H   0  0  0  0  0  0  0  0  0  0  0  0
    1.3753  -10.6743   11.3401 H   0  0  0  0  0  0  0  0  0  0  0  0
    2.8644  -10.3441   14.1198 H   0  0  0  0  0  0  0  0  0  0  0  0
    5.3273  -10.7048   13.2733 H   0  0  0  0  0  0  0  0  0  0  0  0
    4.7574  -10.5374   14.6596 H   0  0  0  0  0  0  0  0  0  0  0  0
    5.2582   -7.3837   13.4265 H   0  0  0  0  0  0  0  0  0  0  0  0
    7.2896   -6.0552   16.3258 H   0  0  0  0  0  0  0  0  0  0  0  0
    8.3234   -3.4251   14.7818 H   0  0  0  0  0  0  0  0  0  0  0  0
    9.1758   -5.0253   14.3539 H   0  0  0  0  0  0  0  0  0  0  0  0
   10.9298   -3.8825   14.2109 H   0  0  0  0  0  0  0  0  0  0  0  0
   10.6015   -2.9588   15.6432 H   0  0  0  0  0  0  0  0  0  0  0  0
   12.4253   -4.7682   15.9335 H   0  0  0  0  0  0  0  0  0  0  0  0
   11.1996   -4.8091   17.1016 H   0  0  0  0  0  0  0  0  0  0  0  0
    9.6663   -7.6937   14.4996 H   0  0  0  0  0  0  0  0  0  0  0  0
    9.5695   -8.3519   15.7370 H   0  0  0  0  0  0  0  0  0  0  0  0
    1.2437  -12.1786   14.8996 H   0  0  0  0  0  0  0  0  0  0  0  0
   -1.2847  -12.9605   13.9937 H   0  0  0  0  0  0  0  0  0  0  0  0
   -1.2051  -13.9630   15.3696 H   0  0  0  0  0  0  0  0  0  0  0  0
   -2.2439  -15.9072   14.9024 H   0  0  0  0  0  0  0  0  0  0  0  0
   -2.6157  -14.6636   16.1573 H   0  0  0  0  0  0  0  0  0  0  0  0
   -5.5777  -16.5902   13.8003 H   0  0  0  0  0  0  0  0  0  0  0  0
   -7.1388  -17.3137   15.7153 H   0  0  0  0  0  0  0  0  0  0  0  0
   -3.8293  -16.3142   17.5218 H   0  0  0  0  0  0  0  0  0  0  0  0
  1  2  1  0
  2  3  1  0
  3  4  1  0
  4  5  1  0
  5  6  2  0
  5  7  1  0
  7  8  1  0
  8  9  1  0
  9 10  1  0
 10 11  1  0
 11 12  1  0
  2 13  1  0
 13 14  1  0
 14 15  2  0
 14 16  1  0
 16 17  1  0
 17 18  1  0
 18 19  2  0
 19 20  1  0
 20 21  2  0
 21 22  1  0
 12  7  1  0
 22 18  1  0
  1 23  1  0
  1 24  1  0
  1 25  1  0
  2 26  1  0
  3 27  1  0
  3 28  1  0
  4 29  1  0
  7 30  1  0
  8 31  1  0
  8 32  1  0
  9 33  1  0
  9 34  1  0
 10 35  1  0
 10 36  1  0
 12 37  1  0
 12 38  1  0
 13 39  1  0
 16 40  1  0
 16 41  1  0
 17 42  1  0
 17 43  1  0
 19 44  1  0
 20 45  1  0
 22 46  1  0
M  END
>  <Energy>  (515) 
1210.5587264187373

>  <compound_id>  (515) 
90248

>  <target_id>  (515) 
1

>  <reference_id>  (515) 
81

>  <inspiration_ids>  (515) 
[112, 81]

>  <energy_score>  (515) 
1188.7749555134958

>  <distance_score>  (515) 
9.928454078067436

>  <path>  (515) 
/opt/xchem-fragalysis-2/maxwin/BulkDock/SCRATCH/511016/C90248-P81/C90248-P81.minimised.mol

>  <scratch_subdir>  (515) 
/opt/xchem-fragalysis-2/maxwin/BulkDock/SCRATCH/511016/C90248-P81

>  <fragmenstein_runtime>  (515) 
20.646076440811157

>  <fragmenstein_outcome>  (515) 
too moved

>  <fragmenstein_mode>  (515) 
expansion

>  <fragmenstein_error>  (515) 


$$$$
C90249-P112
     RDKit          3D

 49 50  0  0  0  0  0  0  0  0999 V2000
    1.9712   -3.1088   21.2911 C   0  0  0  0  0  0  0  0  0  0  0  0
    1.9974   -4.2091   20.2196 C   0  0  0  0  0  0  0  0  0  0  0  0
    3.6089   -4.7338   19.3954 C   0  0  0  0  0  0  0  0  0  0  0  0
    4.6396   -4.5267   17.8860 N   0  0  0  0  0  0  0  0  0  0  0  0
    6.4358   -5.0893   17.4711 C   0  0  0  0  0  0  0  0  0  0  0  0
    6.9624   -5.8237   18.2453 O   0  0  0  0  0  0  0  0  0  0  0  0
    7.7373   -4.2217   15.8077 C   0  0  0  0  0  0  0  0  0  0  0  0
    6.3643   -2.9757   14.9313 C   0  0  0  0  0  0  0  0  0  0  0  0
    8.1924   -2.2673   15.5331 C   0  0  0  0  0  0  0  0  0  0  0  0
    9.5680   -1.3113   15.7396 C   0  0  0  0  0  0  0  0  0  0  0  0
   10.9338   -1.9928   15.8115 C   0  0  0  0  0  0  0  0  0  0  0  0
   10.7000   -3.3701   16.0469 O   0  0  0  0  0  0  0  0  0  0  0  0
    9.5791   -3.7472   15.1617 C   0  0  0  0  0  0  0  0  0  0  0  0
    1.0368   -5.5165   20.5134 N   0  0  0  0  0  0  0  0  0  0  0  0
   -0.4367   -5.6325   20.6592 C   0  0  0  0  0  0  0  0  0  0  0  0
   -1.2881   -4.7862   20.6803 O   0  0  0  0  0  0  0  0  0  0  0  0
   -0.8427   -7.2650   20.6817 C   0  0  0  0  0  0  0  0  0  0  0  0
   -2.3228   -7.7605   20.3322 C   0  0  0  0  0  0  0  0  0  0  0  0
   -2.5844   -9.2086   19.8578 C   0  0  0  0  0  0  0  0  0  0  0  0
   -2.8663  -10.3910   20.5309 C   0  0  0  0  0  0  0  0  0  0  0  0
   -3.2082  -11.3400   19.5408 C   0  0  0  0  0  0  0  0  0  0  0  0
   -3.1466  -10.8180   18.3161 N   0  0  0  0  0  0  0  0  0  0  0  0
   -2.7523   -9.5431   18.5293 N   0  0  0  0  0  0  0  0  0  0  0  0
    1.5896   -3.4396   22.2561 H   0  0  0  0  0  0  0  0  0  0  0  0
    1.2579   -2.3244   20.9978 H   0  0  0  0  0  0  0  0  0  0  0  0
    2.9346   -2.6016   21.3805 H   0  0  0  0  0  0  0  0  0  0  0  0
    1.5107   -3.5644   19.4651 H   0  0  0  0  0  0  0  0  0  0  0  0
    4.2914   -4.0876   19.9539 H   0  0  0  0  0  0  0  0  0  0  0  0
    3.2482   -3.8111   18.8617 H   0  0  0  0  0  0  0  0  0  0  0  0
    4.2796   -3.9718   17.0959 H   0  0  0  0  0  0  0  0  0  0  0  0
    6.4708   -2.8149   13.8804 H   0  0  0  0  0  0  0  0  0  0  0  0
    5.3316   -3.2380   15.1907 H   0  0  0  0  0  0  0  0  0  0  0  0
    6.2290   -1.8747   15.0652 H   0  0  0  0  0  0  0  0  0  0  0  0
    8.1052   -2.0729   14.4422 H   0  0  0  0  0  0  0  0  0  0  0  0
    7.5389   -1.5363   15.9991 H   0  0  0  0  0  0  0  0  0  0  0  0
    9.4099   -0.6506   16.5893 H   0  0  0  0  0  0  0  0  0  0  0  0
    9.5878   -0.5928   14.9072 H   0  0  0  0  0  0  0  0  0  0  0  0
   11.5647   -1.6112   16.6115 H   0  0  0  0  0  0  0  0  0  0  0  0
   11.4898   -1.8725   14.8736 H   0  0  0  0  0  0  0  0  0  0  0  0
    9.6627   -2.9731   14.4049 H   0  0  0  0  0  0  0  0  0  0  0  0
   10.1172   -4.4804   14.5920 H   0  0  0  0  0  0  0  0  0  0  0  0
    1.4356   -6.4364   20.4543 H   0  0  0  0  0  0  0  0  0  0  0  0
   -0.1663   -7.7716   19.9873 H   0  0  0  0  0  0  0  0  0  0  0  0
   -0.5929   -7.6201   21.6889 H   0  0  0  0  0  0  0  0  0  0  0  0
   -2.9231   -7.6095   21.2400 H   0  0  0  0  0  0  0  0  0  0  0  0
   -2.7589   -7.0753   19.5976 H   0  0  0  0  0  0  0  0  0  0  0  0
   -2.8670  -10.5332   21.6021 H   0  0  0  0  0  0  0  0  0  0  0  0
   -3.5056  -12.3728   19.6657 H   0  0  0  0  0  0  0  0  0  0  0  0
   -2.6278   -8.9357   17.7234 H   0  0  0  0  0  0  0  0  0  0  0  0
  1  2  1  0
  2  3  1  0
  3  4  1  0
  4  5  1  0
  5  6  2  0
  5  7  1  0
  7  8  1  0
  7  9  1  0
  9 10  1  0
 10 11  1  0
 11 12  1  0
 12 13  1  0
  2 14  1  0
 14 15  1  0
 15 16  2  0
 15 17  1  0
 17 18  1  0
 18 19  1  0
 19 20  2  0
 20 21  1  0
 21 22  2  0
 22 23  1  0
 13  7  1  0
 23 19  1  0
  1 24  1  0
  1 25  1  0
  1 26  1  0
  2 27  1  0
  3 28  1  0
  3 29  1  0
  4 30  1  0
  8 31  1  0
  8 32  1  0
  8 33  1  0
  9 34  1  0
  9 35  1  0
 10 36  1  0
 10 37  1  0
 11 38  1  0
 11 39  1  0
 13 40  1  0
 13 41  1  0
 14 42  1  0
 17 43  1  0
 17 44  1  0
 18 45  1  0
 18 46  1  0
 20 47  1  0
 21 48  1  0
 23 49  1  0
M  END
>  <Energy>  (516) 
846.31764057245823

>  <compound_id>  (516) 
90249

>  <target_id>  (516) 
1

>  <reference_id>  (516) 
112

>  <inspiration_ids>  (516) 
[112, 81]

>  <energy_score>  (516) 
806.3177965555589

>  <distance_score>  (516) 
15.244007680835605

>  <path>  (516) 
/opt/xchem-fragalysis-2/maxwin/BulkDock/SCRATCH/511016/C90249-P112/C90249-P112.minimised.mol

>  <scratch_subdir>  (516) 
/opt/xchem-fragalysis-2/maxwin/BulkDock/SCRATCH/511016/C90249-P112

>  <fragmenstein_runtime>  (516) 
25.844797134399414

>  <fragmenstein_outcome>  (516) 
too moved

>  <fragmenstein_mode>  (516) 
expansion

>  <fragmenstein_error>  (516) 


$$$$
C90249-P81
     RDKit          3D

 49 50  0  0  0  0  0  0  0  0999 V2000
    1.9780  -10.1096   11.0637 C   0  0  0  0  0  0  0  0  0  0  0  0
    3.4046  -10.5612   11.6540 C   0  0  0  0  0  0  0  0  0  0  0  0
    4.4505   -9.5971   13.3518 C   0  0  0  0  0  0  0  0  0  0  0  0
    5.5619   -7.8024   13.5659 N   0  0  0  0  0  0  0  0  0  0  0  0
    7.1942   -7.3543   14.5820 C   0  0  0  0  0  0  0  0  0  0  0  0
    7.4716   -8.1914   15.1712 O   0  0  0  0  0  0  0  0  0  0  0  0
    8.6321   -5.5153   14.5484 C   0  0  0  0  0  0  0  0  0  0  0  0
   10.5245   -5.1100   14.0036 C   0  0  0  0  0  0  0  0  0  0  0  0
    8.2371   -3.4430   14.7900 C   0  0  0  0  0  0  0  0  0  0  0  0
    8.7783   -1.9763   15.0754 C   0  0  0  0  0  0  0  0  0  0  0  0
   10.2311   -1.7618   15.1585 C   0  0  0  0  0  0  0  0  0  0  0  0
   10.7867   -2.9756   14.8389 O   0  0  0  0  0  0  0  0  0  0  0  0
   10.1125   -4.2070   15.3592 C   0  0  0  0  0  0  0  0  0  0  0  0
    2.7873  -12.1821   10.7217 N   0  0  0  0  0  0  0  0  0  0  0  0
    3.6099  -13.4734   10.1291 C   0  0  0  0  0  0  0  0  0  0  0  0
    4.7911  -13.7009   10.1433 O   0  0  0  0  0  0  0  0  0  0  0  0
    2.6868  -14.9472    9.3568 C   0  0  0  0  0  0  0  0  0  0  0  0
    1.8721  -16.2126    9.9704 C   0  0  0  0  0  0  0  0  0  0  0  0
    1.3440  -17.2941    9.0456 C   0  0  0  0  0  0  0  0  0  0  0  0
    1.2966  -18.6672    9.2446 C   0  0  0  0  0  0  0  0  0  0  0  0
    0.6047  -19.1879    8.1331 C   0  0  0  0  0  0  0  0  0  0  0  0
    0.2440  -18.2264    7.2793 N   0  0  0  0  0  0  0  0  0  0  0  0
    0.7486  -17.1054    7.8269 N   0  0  0  0  0  0  0  0  0  0  0  0
    2.1251  -10.2247   10.0087 H   0  0  0  0  0  0  0  0  0  0  0  0
    1.5457   -9.1166   11.0282 H   0  0  0  0  0  0  0  0  0  0  0  0
    1.1553  -10.7514   11.4141 H   0  0  0  0  0  0  0  0  0  0  0  0
    3.9367  -10.3642   10.6869 H   0  0  0  0  0  0  0  0  0  0  0  0
    3.7041   -9.7877   14.0713 H   0  0  0  0  0  0  0  0  0  0  0  0
    5.1566  -10.3954   13.6798 H   0  0  0  0  0  0  0  0  0  0  0  0
    5.3556   -7.0536   12.9616 H   0  0  0  0  0  0  0  0  0  0  0  0
   10.8110   -5.9352   14.7178 H   0  0  0  0  0  0  0  0  0  0  0  0
   11.0681   -5.4111   13.0790 H   0  0  0  0  0  0  0  0  0  0  0  0
   10.9147   -4.1747   13.5484 H   0  0  0  0  0  0  0  0  0  0  0  0
    7.3781   -3.3937   15.4650 H   0  0  0  0  0  0  0  0  0  0  0  0
    7.7595   -3.1216   13.8629 H   0  0  0  0  0  0  0  0  0  0  0  0
    8.3226   -1.5537   15.9707 H   0  0  0  0  0  0  0  0  0  0  0  0
    8.3401   -1.2769   14.3507 H   0  0  0  0  0  0  0  0  0  0  0  0
   10.5864   -0.9940   14.4646 H   0  0  0  0  0  0  0  0  0  0  0  0
   10.5715   -1.4526   16.1437 H   0  0  0  0  0  0  0  0  0  0  0  0
   11.1135   -4.6993   15.7059 H   0  0  0  0  0  0  0  0  0  0  0  0
   10.2571   -4.0778   16.4276 H   0  0  0  0  0  0  0  0  0  0  0  0
    1.8030  -12.3376   10.6234 H   0  0  0  0  0  0  0  0  0  0  0  0
    2.1001  -14.7299    8.4720 H   0  0  0  0  0  0  0  0  0  0  0  0
    3.5659  -15.4495    8.9098 H   0  0  0  0  0  0  0  0  0  0  0  0
    2.5702  -16.7742   10.5986 H   0  0  0  0  0  0  0  0  0  0  0  0
    1.0332  -15.8717   10.5883 H   0  0  0  0  0  0  0  0  0  0  0  0
    1.6609  -19.2129   10.1035 H   0  0  0  0  0  0  0  0  0  0  0  0
    0.3214  -20.2125    7.9320 H   0  0  0  0  0  0  0  0  0  0  0  0
    0.6553  -16.2429    7.3005 H   0  0  0  0  0  0  0  0  0  0  0  0
  1  2  1  0
  2  3  1  0
  3  4  1  0
  4  5  1  0
  5  6  2  0
  5  7  1  0
  7  8  1  0
  7  9  1  0
  9 10  1  0
 10 11  1  0
 11 12  1  0
 12 13  1  0
  2 14  1  0
 14 15  1  0
 15 16  2  0
 15 17  1  0
 17 18  1  0
 18 19  1  0
 19 20  2  0
 20 21  1  0
 21 22  2  0
 22 23  1  0
 13  7  1  0
 23 19  1  0
  1 24  1  0
  1 25  1  0
  1 26  1  0
  2 27  1  0
  3 28  1  0
  3 29  1  0
  4 30  1  0
  8 31  1  0
  8 32  1  0
  8 33  1  0
  9 34  1  0
  9 35  1  0
 10 36  1  0
 10 37  1  0
 11 38  1  0
 11 39  1  0
 13 40  1  0
 13 41  1  0
 14 42  1  0
 17 43  1  0
 17 44  1  0
 18 45  1  0
 18 46  1  0
 20 47  1  0
 21 48  1  0
 23 49  1  0
M  END
>  <Energy>  (517) 
1512.8996330159514

>  <compound_id>  (517) 
90249

>  <target_id>  (517) 
1

>  <reference_id>  (517) 
81

>  <inspiration_ids>  (517) 
[112, 81]

>  <energy_score>  (517) 
1472.8997889990515

>  <distance_score>  (517) 
12.400600255312524

>  <path>  (517) 
/opt/xchem-fragalysis-2/maxwin/BulkDock/SCRATCH/511016/C90249-P81/C90249-P81.minimised.mol

>  <scratch_subdir>  (517) 
/opt/xchem-fragalysis-2/maxwin/BulkDock/SCRATCH/511016/C90249-P81

>  <fragmenstein_runtime>  (517) 
21.405102252960205

>  <fragmenstein_outcome>  (517) 
too moved

>  <fragmenstein_mode>  (517) 
expansion

>  <fragmenstein_error>  (517) 


$$$$
C90252-P112
     RDKit          3D

 38 40  0  0  0  0  0  0  0  0999 V2000
    4.4860   -9.4950   13.6346 C   0  0  0  0  0  0  0  0  0  0  0  0
    3.4444  -10.0219   14.2797 C   0  0  0  0  0  0  0  0  0  0  0  0
    2.4228  -10.8803   13.6179 C   0  0  0  0  0  0  0  0  0  0  0  0
    2.2414  -13.0235   13.7731 C   0  0  0  0  0  0  0  0  0  0  0  0
    4.4204  -12.9548   14.0140 O   0  0  0  0  0  0  0  0  0  0  0  0
    5.3269  -14.7415   13.2097 C   0  0  0  0  0  0  0  0  0  0  0  0
    4.1738  -16.2012   12.1929 C   0  0  0  0  0  0  0  0  0  0  0  0
    2.2811  -16.2658   11.2677 C   0  0  0  0  0  0  0  0  0  0  0  0
    1.5549  -14.4718   12.2440 C   0  0  0  0  0  0  0  0  0  0  0  0
    0.2818  -15.6830   11.5867 C   0  0  0  0  0  0  0  0  0  0  0  0
    0.1331  -17.4204   11.4280 N   0  0  0  0  0  0  0  0  0  0  0  0
    1.0931  -18.6795   11.5315 C   0  0  0  0  0  0  0  0  0  0  0  0
    0.6632  -20.1437   11.7907 C   0  0  0  0  0  0  0  0  0  0  0  0
    0.9197  -21.3190   11.0202 C   0  0  0  0  0  0  0  0  0  0  0  0
    0.3370  -22.3633   11.7108 C   0  0  0  0  0  0  0  0  0  0  0  0
   -0.1806  -21.8105   12.8420 N   0  0  0  0  0  0  0  0  0  0  0  0
   -0.0389  -20.4760   12.8760 N   0  0  0  0  0  0  0  0  0  0  0  0
    4.0403  -10.9585   14.6284 N   0  0  0  0  0  0  0  0  0  0  0  0
    5.1318  -10.5923   13.7970 N   0  0  0  0  0  0  0  0  0  0  0  0
    4.7920   -8.4505   13.6871 H   0  0  0  0  0  0  0  0  0  0  0  0
    2.8820   -9.3210   14.8816 H   0  0  0  0  0  0  0  0  0  0  0  0
    1.8727  -12.6556   14.7955 H   0  0  0  0  0  0  0  0  0  0  0  0
    6.0990  -14.3126   12.4986 H   0  0  0  0  0  0  0  0  0  0  0  0
    5.5817  -15.4927   14.0587 H   0  0  0  0  0  0  0  0  0  0  0  0
    4.2373  -17.0969   12.8413 H   0  0  0  0  0  0  0  0  0  0  0  0
    4.6445  -16.5470   11.2487 H   0  0  0  0  0  0  0  0  0  0  0  0
    2.4241  -17.3011   11.3942 H   0  0  0  0  0  0  0  0  0  0  0  0
    2.4854  -16.0132   10.1958 H   0  0  0  0  0  0  0  0  0  0  0  0
    1.1467  -13.7057   11.5720 H   0  0  0  0  0  0  0  0  0  0  0  0
   -0.6812  -15.1732   11.6503 H   0  0  0  0  0  0  0  0  0  0  0  0
    0.3972  -15.6270   10.5150 H   0  0  0  0  0  0  0  0  0  0  0  0
   -0.3324  -17.5604   10.5209 H   0  0  0  0  0  0  0  0  0  0  0  0
    1.7605  -18.6125   12.3907 H   0  0  0  0  0  0  0  0  0  0  0  0
    1.6336  -18.7384   10.5750 H   0  0  0  0  0  0  0  0  0  0  0  0
    1.4557  -21.3798   10.0838 H   0  0  0  0  0  0  0  0  0  0  0  0
    0.2781  -23.4241   11.5171 H   0  0  0  0  0  0  0  0  0  0  0  0
   -0.6405  -22.2567   13.6309 H   0  0  0  0  0  0  0  0  0  0  0  0
    4.1662  -11.7712   15.2315 H   0  0  0  0  0  0  0  0  0  0  0  0
  1  2  1  0
  2  3  2  0
  3  4  1  0
  4  5  1  0
  5  6  1  0
  6  7  1  0
  7  8  1  0
  8  9  1  0
  9 10  1  0
 10 11  1  0
 11 12  1  0
 12 13  1  0
 13 14  1  0
 14 15  2  0
 15 16  1  0
 16 17  1  0
  3 18  1  0
 18 19  1  0
 19  1  2  0
  9  4  1  0
 17 13  2  0
  1 20  1  0
  2 21  1  0
  4 22  1  0
  6 23  1  0
  6 24  1  0
  7 25  1  0
  7 26  1  0
  8 27  1  0
  8 28  1  0
  9 29  1  0
 10 30  1  0
 10 31  1  0
 11 32  1  0
 12 33  1  0
 12 34  1  0
 14 35  1  0
 15 36  1  0
 16 37  1  0
 18 38  1  0
M  END
>  <Energy>  (518) 
1497.4779182178672

>  <compound_id>  (518) 
90252

>  <target_id>  (518) 
1

>  <reference_id>  (518) 
112

>  <inspiration_ids>  (518) 
[112, 81]

>  <energy_score>  (518) 
1420.726673026968

>  <distance_score>  (518) 
12.741652759615075

>  <path>  (518) 
/opt/xchem-fragalysis-2/maxwin/BulkDock/SCRATCH/511016/C90252-P112/C90252-P112.minimised.mol

>  <scratch_subdir>  (518) 
/opt/xchem-fragalysis-2/maxwin/BulkDock/SCRATCH/511016/C90252-P112

>  <fragmenstein_runtime>  (518) 
13.225422859191895

>  <fragmenstein_outcome>  (518) 
too moved

>  <fragmenstein_mode>  (518) 
expansion

>  <fragmenstein_error>  (518) 


$$$$
C90252-P81
     RDKit          3D

 38 40  0  0  0  0  0  0  0  0999 V2000
    6.3481  -18.3112   14.1934 C   0  0  0  0  0  0  0  0  0  0  0  0
    5.9934  -19.3178   13.2942 C   0  0  0  0  0  0  0  0  0  0  0  0
    4.6059  -19.3288   13.2695 C   0  0  0  0  0  0  0  0  0  0  0  0
    3.6761  -20.3614   12.6562 C   0  0  0  0  0  0  0  0  0  0  0  0
    4.2164  -20.6586   11.3636 O   0  0  0  0  0  0  0  0  0  0  0  0
    3.6484  -19.9603   10.2588 C   0  0  0  0  0  0  0  0  0  0  0  0
    2.7881  -18.7700   10.6403 C   0  0  0  0  0  0  0  0  0  0  0  0
    1.6571  -19.2210   11.5525 C   0  0  0  0  0  0  0  0  0  0  0  0
    2.1151  -20.2047   12.6422 C   0  0  0  0  0  0  0  0  0  0  0  0
    1.4165  -21.6299   12.4458 C   0  0  0  0  0  0  0  0  0  0  0  0
   -0.0799  -21.7147   12.3562 N   0  0  0  0  0  0  0  0  0  0  0  0
   -0.5195  -23.1420   12.2626 C   0  0  0  0  0  0  0  0  0  0  0  0
   -1.9353  -23.3905   11.7902 C   0  0  0  0  0  0  0  0  0  0  0  0
   -2.7289  -24.5469   12.0577 C   0  0  0  0  0  0  0  0  0  0  0  0
   -3.8888  -24.3741   11.3385 C   0  0  0  0  0  0  0  0  0  0  0  0
   -3.7718  -23.1402   10.7654 N   0  0  0  0  0  0  0  0  0  0  0  0
   -2.5567  -22.5941   10.9122 N   0  0  0  0  0  0  0  0  0  0  0  0
    4.2353  -18.2650   14.0416 N   0  0  0  0  0  0  0  0  0  0  0  0
    5.2798  -17.6528   14.6406 N   0  0  0  0  0  0  0  0  0  0  0  0
    7.3337  -18.0291   14.5414 H   0  0  0  0  0  0  0  0  0  0  0  0
    6.6414  -20.0220   12.7899 H   0  0  0  0  0  0  0  0  0  0  0  0
    3.8768  -21.2611   13.2558 H   0  0  0  0  0  0  0  0  0  0  0  0
    3.0608  -20.6820    9.6801 H   0  0  0  0  0  0  0  0  0  0  0  0
    4.4733  -19.6362    9.6159 H   0  0  0  0  0  0  0  0  0  0  0  0
    2.3777  -18.2932    9.7433 H   0  0  0  0  0  0  0  0  0  0  0  0
    3.3956  -18.0145   11.1490 H   0  0  0  0  0  0  0  0  0  0  0  0
    0.8851  -19.6776   10.9264 H   0  0  0  0  0  0  0  0  0  0  0  0
    1.1946  -18.3404   12.0103 H   0  0  0  0  0  0  0  0  0  0  0  0
    1.7930  -19.8306   13.6194 H   0  0  0  0  0  0  0  0  0  0  0  0
    1.7388  -22.2626   13.2828 H   0  0  0  0  0  0  0  0  0  0  0  0
    1.8260  -22.0725   11.5292 H   0  0  0  0  0  0  0  0  0  0  0  0
   -0.4880  -21.3226   13.2129 H   0  0  0  0  0  0  0  0  0  0  0  0
   -0.3826  -23.6116   13.2446 H   0  0  0  0  0  0  0  0  0  0  0  0
    0.1344  -23.6691   11.5555 H   0  0  0  0  0  0  0  0  0  0  0  0
   -2.4730  -25.3864   12.6867 H   0  0  0  0  0  0  0  0  0  0  0  0
   -4.7875  -24.9624   11.2449 H   0  0  0  0  0  0  0  0  0  0  0  0
   -4.4721  -22.5918   10.2731 H   0  0  0  0  0  0  0  0  0  0  0  0
    3.2899  -17.9400   14.2496 H   0  0  0  0  0  0  0  0  0  0  0  0
  1  2  1  0
  2  3  2  0
  3  4  1  0
  4  5  1  0
  5  6  1  0
  6  7  1  0
  7  8  1  0
  8  9  1  0
  9 10  1  0
 10 11  1  0
 11 12  1  0
 12 13  1  0
 13 14  1  0
 14 15  2  0
 15 16  1  0
 16 17  1  0
  3 18  1  0
 18 19  1  0
 19  1  2  0
  9  4  1  0
 17 13  2  0
  1 20  1  0
  2 21  1  0
  4 22  1  0
  6 23  1  0
  6 24  1  0
  7 25  1  0
  7 26  1  0
  8 27  1  0
  8 28  1  0
  9 29  1  0
 10 30  1  0
 10 31  1  0
 11 32  1  0
 12 33  1  0
 12 34  1  0
 14 35  1  0
 15 36  1  0
 16 37  1  0
 18 38  1  0
M  END
>  <Energy>  (519) 
56.244605221409223

>  <compound_id>  (519) 
90252

>  <target_id>  (519) 
1

>  <reference_id>  (519) 
81

>  <inspiration_ids>  (519) 
[112, 81]

>  <energy_score>  (519) 
-20.50663996950044

>  <distance_score>  (519) 
14.218888840336898

>  <path>  (519) 
/opt/xchem-fragalysis-2/maxwin/BulkDock/SCRATCH/511016/C90252-P81/C90252-P81.minimised.mol

>  <scratch_subdir>  (519) 
/opt/xchem-fragalysis-2/maxwin/BulkDock/SCRATCH/511016/C90252-P81

>  <fragmenstein_runtime>  (519) 
14.407376527786255

>  <fragmenstein_outcome>  (519) 
too moved

>  <fragmenstein_mode>  (519) 
expansion

>  <fragmenstein_error>  (519) 


$$$$
C90253-P112
     RDKit          3D

 46 47  0  0  0  0  0  0  0  0999 V2000
   10.6819   -3.4475   12.5892 O   0  0  0  0  0  0  0  0  0  0  0  0
   11.4102   -4.2812   12.1905 C   0  0  0  0  0  0  0  0  0  0  0  0
   12.8892   -3.7253   12.2497 C   0  0  0  0  0  0  0  0  0  0  0  0
   13.4636   -3.4878   13.7495 C   0  0  0  0  0  0  0  0  0  0  0  0
   14.6836   -2.5718   13.7601 C   0  0  0  0  0  0  0  0  0  0  0  0
   15.0742   -2.3750   15.0480 F   0  0  0  0  0  0  0  0  0  0  0  0
   10.9416   -6.1165   11.6892 N   0  0  0  0  0  0  0  0  0  0  0  0
    8.8332   -7.0169   11.6028 C   0  0  0  0  0  0  0  0  0  0  0  0
    6.8665   -6.9425   12.8416 C   0  0  0  0  0  0  0  0  0  0  0  0
    4.9073   -7.7405   13.0553 N   0  0  0  0  0  0  0  0  0  0  0  0
    3.6233   -8.4313   11.6548 C   0  0  0  0  0  0  0  0  0  0  0  0
    4.0719   -8.2146   10.5949 O   0  0  0  0  0  0  0  0  0  0  0  0
    1.9154   -9.6053   11.3707 C   0  0  0  0  0  0  0  0  0  0  0  0
    0.9563  -11.0647   11.6951 C   0  0  0  0  0  0  0  0  0  0  0  0
   -0.2575  -11.4684   12.2304 C   0  0  0  0  0  0  0  0  0  0  0  0
   -0.1362  -12.8145   12.5888 C   0  0  0  0  0  0  0  0  0  0  0  0
    0.6705  -13.4237   11.7917 N   0  0  0  0  0  0  0  0  0  0  0  0
    1.1682  -12.3340   11.1834 N   0  0  0  0  0  0  0  0  0  0  0  0
    8.0196   -6.3849   14.6527 C   0  0  0  0  0  0  0  0  0  0  0  0
    8.4680   -4.2883   14.7406 C   0  0  0  0  0  0  0  0  0  0  0  0
    7.0213   -3.0033   14.1458 O   0  0  0  0  0  0  0  0  0  0  0  0
    5.3040   -3.6118   13.3619 C   0  0  0  0  0  0  0  0  0  0  0  0
    5.0999   -5.6454   12.6580 C   0  0  0  0  0  0  0  0  0  0  0  0
   12.6973   -2.6313   12.3658 H   0  0  0  0  0  0  0  0  0  0  0  0
   13.4237   -3.5860   11.3006 H   0  0  0  0  0  0  0  0  0  0  0  0
   13.7084   -4.3897   14.3161 H   0  0  0  0  0  0  0  0  0  0  0  0
   12.6767   -3.0212   14.3628 H   0  0  0  0  0  0  0  0  0  0  0  0
   15.5261   -3.0113   13.2200 H   0  0  0  0  0  0  0  0  0  0  0  0
   14.4597   -1.5918   13.3291 H   0  0  0  0  0  0  0  0  0  0  0  0
   11.7383   -6.5974   11.2983 H   0  0  0  0  0  0  0  0  0  0  0  0
    9.1191   -7.9730   11.0434 H   0  0  0  0  0  0  0  0  0  0  0  0
    8.3806   -6.7887   10.5928 H   0  0  0  0  0  0  0  0  0  0  0  0
    4.5549   -8.0052   13.9422 H   0  0  0  0  0  0  0  0  0  0  0  0
    1.1746   -9.0300   10.7982 H   0  0  0  0  0  0  0  0  0  0  0  0
    2.5152  -10.3125   10.7367 H   0  0  0  0  0  0  0  0  0  0  0  0
   -0.9914  -10.8148   12.6423 H   0  0  0  0  0  0  0  0  0  0  0  0
   -0.6319  -13.4088   13.3057 H   0  0  0  0  0  0  0  0  0  0  0  0
    1.9629  -12.4713   10.5806 H   0  0  0  0  0  0  0  0  0  0  0  0
    7.2273   -6.5172   15.4332 H   0  0  0  0  0  0  0  0  0  0  0  0
    8.7978   -7.1101   14.8750 H   0  0  0  0  0  0  0  0  0  0  0  0
    9.4818   -3.8061   14.7620 H   0  0  0  0  0  0  0  0  0  0  0  0
    8.1669   -3.9573   15.7237 H   0  0  0  0  0  0  0  0  0  0  0  0
    4.6775   -3.5053   14.2668 H   0  0  0  0  0  0  0  0  0  0  0  0
    5.0360   -2.8571   12.6047 H   0  0  0  0  0  0  0  0  0  0  0  0
    4.3508   -5.9201   13.4545 H   0  0  0  0  0  0  0  0  0  0  0  0
    4.4289   -5.6164   11.7703 H   0  0  0  0  0  0  0  0  0  0  0  0
  1  2  2  0
  2  3  1  0
  3  4  1  0
  4  5  1  0
  5  6  1  0
  2  7  1  0
  7  8  1  0
  8  9  1  0
  9 10  1  0
 10 11  1  0
 11 12  2  0
 11 13  1  0
 13 14  1  0
 14 15  2  0
 15 16  1  0
 16 17  2  0
 17 18  1  0
  9 19  1  0
 19 20  1  0
 20 21  1  0
 21 22  1  0
 22 23  1  0
 23  9  1  0
 18 14  1  0
  3 24  1  0
  3 25  1  0
  4 26  1  0
  4 27  1  0
  5 28  1  0
  5 29  1  0
  7 30  1  0
  8 31  1  0
  8 32  1  0
 10 33  1  0
 13 34  1  0
 13 35  1  0
 15 36  1  0
 16 37  1  0
 18 38  1  0
 19 39  1  0
 19 40  1  0
 20 41  1  0
 20 42  1  0
 22 43  1  0
 22 44  1  0
 23 45  1  0
 23 46  1  0
M  END
>  <Energy>  (520) 
1880.4787293858981

>  <compound_id>  (520) 
90253

>  <target_id>  (520) 
1

>  <reference_id>  (520) 
112

>  <inspiration_ids>  (520) 
[112, 81]

>  <energy_score>  (520) 
1827.7363413966405

>  <distance_score>  (520) 
15.200080836961051

>  <path>  (520) 
/opt/xchem-fragalysis-2/maxwin/BulkDock/SCRATCH/511016/C90253-P112/C90253-P112.minimised.mol

>  <scratch_subdir>  (520) 
/opt/xchem-fragalysis-2/maxwin/BulkDock/SCRATCH/511016/C90253-P112

>  <fragmenstein_runtime>  (520) 
17.24262237548828

>  <fragmenstein_outcome>  (520) 
too moved

>  <fragmenstein_mode>  (520) 
expansion

>  <fragmenstein_error>  (520) 


$$$$
C90253-P81
     RDKit          3D

 46 47  0  0  0  0  0  0  0  0999 V2000
    9.8057  -11.7279   14.9187 O   0  0  0  0  0  0  0  0  0  0  0  0
    9.2913  -10.9573   15.6728 C   0  0  0  0  0  0  0  0  0  0  0  0
    9.7341  -11.0796   17.1088 C   0  0  0  0  0  0  0  0  0  0  0  0
    9.8793  -12.5430   17.5431 C   0  0  0  0  0  0  0  0  0  0  0  0
    9.9848  -12.6550   19.0523 C   0  0  0  0  0  0  0  0  0  0  0  0
   10.9561  -11.8176   19.5009 F   0  0  0  0  0  0  0  0  0  0  0  0
    8.2319   -9.9803   15.4557 N   0  0  0  0  0  0  0  0  0  0  0  0
    7.1667   -9.6342   13.9382 C   0  0  0  0  0  0  0  0  0  0  0  0
    5.2146   -9.1038   13.8650 C   0  0  0  0  0  0  0  0  0  0  0  0
    3.7461  -10.1776   13.3574 N   0  0  0  0  0  0  0  0  0  0  0  0
    2.9906  -10.4949   11.7237 C   0  0  0  0  0  0  0  0  0  0  0  0
    3.3760  -10.1394   10.6061 O   0  0  0  0  0  0  0  0  0  0  0  0
    1.2803  -11.3286   11.5832 C   0  0  0  0  0  0  0  0  0  0  0  0
    0.4346  -12.8141   11.7723 C   0  0  0  0  0  0  0  0  0  0  0  0
    0.3976  -13.7150   12.7985 C   0  0  0  0  0  0  0  0  0  0  0  0
    0.3007  -15.0061   12.2329 C   0  0  0  0  0  0  0  0  0  0  0  0
   -0.4208  -14.8804   11.1548 N   0  0  0  0  0  0  0  0  0  0  0  0
   -0.4779  -13.5521   11.1124 N   0  0  0  0  0  0  0  0  0  0  0  0
    4.1575   -7.7783   13.9048 C   0  0  0  0  0  0  0  0  0  0  0  0
    4.1322   -6.1552   14.5385 C   0  0  0  0  0  0  0  0  0  0  0  0
    4.0953   -5.3632   13.3497 O   0  0  0  0  0  0  0  0  0  0  0  0
    4.8034   -6.1834   12.3942 C   0  0  0  0  0  0  0  0  0  0  0  0
    5.8255   -7.4512   13.3090 C   0  0  0  0  0  0  0  0  0  0  0  0
    9.0222  -10.5803   17.7709 H   0  0  0  0  0  0  0  0  0  0  0  0
   10.7395  -10.6600   17.1503 H   0  0  0  0  0  0  0  0  0  0  0  0
    9.0425  -13.1483   17.1844 H   0  0  0  0  0  0  0  0  0  0  0  0
   10.7876  -12.9587   17.0896 H   0  0  0  0  0  0  0  0  0  0  0  0
    9.0466  -12.3704   19.5381 H   0  0  0  0  0  0  0  0  0  0  0  0
   10.2425  -13.6737   19.3550 H   0  0  0  0  0  0  0  0  0  0  0  0
    8.1073   -9.4531   16.2796 H   0  0  0  0  0  0  0  0  0  0  0  0
    7.8381  -10.4955   14.0071 H   0  0  0  0  0  0  0  0  0  0  0  0
    6.4125  -10.5044   13.9653 H   0  0  0  0  0  0  0  0  0  0  0  0
    3.1630  -10.5217   14.0706 H   0  0  0  0  0  0  0  0  0  0  0  0
    0.5688  -10.7141   12.0902 H   0  0  0  0  0  0  0  0  0  0  0  0
    0.9282  -10.8124   10.7128 H   0  0  0  0  0  0  0  0  0  0  0  0
    0.7498  -13.2480   13.6645 H   0  0  0  0  0  0  0  0  0  0  0  0
    0.5384  -16.0191   12.4998 H   0  0  0  0  0  0  0  0  0  0  0  0
   -1.0595  -13.2373   10.3873 H   0  0  0  0  0  0  0  0  0  0  0  0
    3.8060   -7.8291   12.8837 H   0  0  0  0  0  0  0  0  0  0  0  0
    3.3917   -8.0848   14.5853 H   0  0  0  0  0  0  0  0  0  0  0  0
    3.2345   -5.9269   15.1265 H   0  0  0  0  0  0  0  0  0  0  0  0
    4.9079   -5.8814   15.2699 H   0  0  0  0  0  0  0  0  0  0  0  0
    4.0798   -6.6093   11.6765 H   0  0  0  0  0  0  0  0  0  0  0  0
    5.2987   -5.5149   11.7131 H   0  0  0  0  0  0  0  0  0  0  0  0
    6.1298   -7.2135   14.3271 H   0  0  0  0  0  0  0  0  0  0  0  0
    6.7546   -7.5207   12.7217 H   0  0  0  0  0  0  0  0  0  0  0  0
  1  2  2  0
  2  3  1  0
  3  4  1  0
  4  5  1  0
  5  6  1  0
  2  7  1  0
  7  8  1  0
  8  9  1  0
  9 10  1  0
 10 11  1  0
 11 12  2  0
 11 13  1  0
 13 14  1  0
 14 15  2  0
 15 16  1  0
 16 17  2  0
 17 18  1  0
  9 19  1  0
 19 20  1  0
 20 21  1  0
 21 22  1  0
 22 23  1  0
 23  9  1  0
 18 14  1  0
  3 24  1  0
  3 25  1  0
  4 26  1  0
  4 27  1  0
  5 28  1  0
  5 29  1  0
  7 30  1  0
  8 31  1  0
  8 32  1  0
 10 33  1  0
 13 34  1  0
 13 35  1  0
 15 36  1  0
 16 37  1  0
 18 38  1  0
 19 39  1  0
 19 40  1  0
 20 41  1  0
 20 42  1  0
 22 43  1  0
 22 44  1  0
 23 45  1  0
 23 46  1  0
M  END
>  <Energy>  (521) 
738.18452446479739

>  <compound_id>  (521) 
90253

>  <target_id>  (521) 
1

>  <reference_id>  (521) 
81

>  <inspiration_ids>  (521) 
[112, 81]

>  <energy_score>  (521) 
685.4421364755384

>  <distance_score>  (521) 
14.512647419516053

>  <path>  (521) 
/opt/xchem-fragalysis-2/maxwin/BulkDock/SCRATCH/511016/C90253-P81/C90253-P81.minimised.mol

>  <scratch_subdir>  (521) 
/opt/xchem-fragalysis-2/maxwin/BulkDock/SCRATCH/511016/C90253-P81

>  <fragmenstein_runtime>  (521) 
24.517101764678955

>  <fragmenstein_outcome>  (521) 
too moved

>  <fragmenstein_mode>  (521) 
expansion

>  <fragmenstein_error>  (521) 


$$$$
C90255-P112
     RDKit          3D

 46 47  0  0  0  0  0  0  0  0999 V2000
   11.7742   -4.2751   16.9909 C   0  0  0  0  0  0  0  0  0  0  0  0
   12.0002   -5.2997   15.8862 C   0  0  0  0  0  0  0  0  0  0  0  0
   13.3183   -4.7354   15.2970 C   0  0  0  0  0  0  0  0  0  0  0  0
   12.2613   -6.5158   16.3388 F   0  0  0  0  0  0  0  0  0  0  0  0
   10.7950   -5.3552   14.8702 C   0  0  0  0  0  0  0  0  0  0  0  0
   10.7802   -4.3564   14.1393 O   0  0  0  0  0  0  0  0  0  0  0  0
    9.5020   -6.7785   14.8296 N   0  0  0  0  0  0  0  0  0  0  0  0
    7.9550   -7.1241   13.6069 C   0  0  0  0  0  0  0  0  0  0  0  0
    6.1093   -7.8852   14.1397 C   0  0  0  0  0  0  0  0  0  0  0  0
    4.5861   -8.5951   13.3862 N   0  0  0  0  0  0  0  0  0  0  0  0
    4.0695  -10.0383   13.3344 C   0  0  0  0  0  0  0  0  0  0  0  0
    4.5275  -10.9848   13.9000 O   0  0  0  0  0  0  0  0  0  0  0  0
    2.5386  -10.4537   11.9746 C   0  0  0  0  0  0  0  0  0  0  0  0
    0.8064  -11.1006   11.8701 C   0  0  0  0  0  0  0  0  0  0  0  0
   -0.3378  -10.4444   11.3840 C   0  0  0  0  0  0  0  0  0  0  0  0
   -1.4503  -11.2955   11.6155 C   0  0  0  0  0  0  0  0  0  0  0  0
   -1.1019  -12.4308   12.2068 N   0  0  0  0  0  0  0  0  0  0  0  0
    0.2447  -12.3365   12.3069 N   0  0  0  0  0  0  0  0  0  0  0  0
    5.6016   -6.6131   14.3235 C   0  0  0  0  0  0  0  0  0  0  0  0
    6.7289   -6.7768   15.3987 C   0  0  0  0  0  0  0  0  0  0  0  0
    7.9157   -8.1696   15.0242 O   0  0  0  0  0  0  0  0  0  0  0  0
    8.1418   -9.7412   14.9464 C   0  0  0  0  0  0  0  0  0  0  0  0
    7.1311   -9.3301   13.8563 C   0  0  0  0  0  0  0  0  0  0  0  0
   12.6423   -4.1698   17.6536 H   0  0  0  0  0  0  0  0  0  0  0  0
   10.9917   -4.5937   17.6436 H   0  0  0  0  0  0  0  0  0  0  0  0
   11.5216   -3.2878   16.5897 H   0  0  0  0  0  0  0  0  0  0  0  0
   13.1567   -4.0104   14.4948 H   0  0  0  0  0  0  0  0  0  0  0  0
   13.9350   -4.2175   16.0437 H   0  0  0  0  0  0  0  0  0  0  0  0
   13.9787   -5.5383   14.9793 H   0  0  0  0  0  0  0  0  0  0  0  0
    9.6831   -7.4077   15.5508 H   0  0  0  0  0  0  0  0  0  0  0  0
    8.1171   -6.4230   12.7910 H   0  0  0  0  0  0  0  0  0  0  0  0
    7.3998   -7.0842   12.5476 H   0  0  0  0  0  0  0  0  0  0  0  0
    3.9392   -7.9997   12.8726 H   0  0  0  0  0  0  0  0  0  0  0  0
    2.3578   -9.6320   11.3458 H   0  0  0  0  0  0  0  0  0  0  0  0
    2.9888  -10.9603   11.0678 H   0  0  0  0  0  0  0  0  0  0  0  0
   -0.3563   -9.4600   10.9382 H   0  0  0  0  0  0  0  0  0  0  0  0
   -2.4895  -11.1211   11.3708 H   0  0  0  0  0  0  0  0  0  0  0  0
    0.7037  -13.1111   12.7750 H   0  0  0  0  0  0  0  0  0  0  0  0
    5.4157   -6.5405   13.2410 H   0  0  0  0  0  0  0  0  0  0  0  0
    4.6476   -6.1937   14.7399 H   0  0  0  0  0  0  0  0  0  0  0  0
    6.2921   -6.6994   16.4095 H   0  0  0  0  0  0  0  0  0  0  0  0
    7.3753   -5.9266   15.5148 H   0  0  0  0  0  0  0  0  0  0  0  0
    9.1198  -10.1946   14.6467 H   0  0  0  0  0  0  0  0  0  0  0  0
    8.1423  -10.0946   15.9817 H   0  0  0  0  0  0  0  0  0  0  0  0
    6.3772  -10.1666   13.8388 H   0  0  0  0  0  0  0  0  0  0  0  0
    7.4168   -9.0881   12.9177 H   0  0  0  0  0  0  0  0  0  0  0  0
  1  2  1  0
  2  3  1  0
  2  4  1  0
  2  5  1  0
  5  6  2  0
  5  7  1  0
  7  8  1  0
  8  9  1  0
  9 10  1  0
 10 11  1  0
 11 12  2  0
 11 13  1  0
 13 14  1  0
 14 15  2  0
 15 16  1  0
 16 17  2  0
 17 18  1  0
  9 19  1  0
 19 20  1  0
 20 21  1  0
 21 22  1  0
 22 23  1  0
 23  9  1  0
 18 14  1  0
  1 24  1  0
  1 25  1  0
  1 26  1  0
  3 27  1  0
  3 28  1  0
  3 29  1  0
  7 30  1  0
  8 31  1  0
  8 32  1  0
 10 33  1  0
 13 34  1  0
 13 35  1  0
 15 36  1  0
 16 37  1  0
 18 38  1  0
 19 39  1  0
 19 40  1  0
 20 41  1  0
 20 42  1  0
 22 43  1  0
 22 44  1  0
 23 45  1  0
 23 46  1  0
M  END
>  <Energy>  (522) 
1056.6988173409707

>  <compound_id>  (522) 
90255

>  <target_id>  (522) 
1

>  <reference_id>  (522) 
112

>  <inspiration_ids>  (522) 
[112, 81]

>  <energy_score>  (522) 
945.5869234579

>  <distance_score>  (522) 
15.329378688265368

>  <path>  (522) 
/opt/xchem-fragalysis-2/maxwin/BulkDock/SCRATCH/511016/C90255-P112/C90255-P112.minimised.mol

>  <scratch_subdir>  (522) 
/opt/xchem-fragalysis-2/maxwin/BulkDock/SCRATCH/511016/C90255-P112

>  <fragmenstein_runtime>  (522) 
15.05910038948059

>  <fragmenstein_outcome>  (522) 
too moved

>  <fragmenstein_mode>  (522) 
expansion

>  <fragmenstein_error>  (522) 


$$$$
C90255-P81
     RDKit          3D

 46 47  0  0  0  0  0  0  0  0999 V2000
   12.6467   -6.3948   16.0867 C   0  0  0  0  0  0  0  0  0  0  0  0
   11.1829   -6.2846   15.7930 C   0  0  0  0  0  0  0  0  0  0  0  0
   11.3435   -4.6544   16.4557 C   0  0  0  0  0  0  0  0  0  0  0  0
   10.7496   -5.3225   14.5642 F   0  0  0  0  0  0  0  0  0  0  0  0
    9.6835   -7.5258   15.2571 C   0  0  0  0  0  0  0  0  0  0  0  0
    8.8451   -6.9090   14.7374 O   0  0  0  0  0  0  0  0  0  0  0  0
    9.3794   -9.2946   15.3925 N   0  0  0  0  0  0  0  0  0  0  0  0
    7.8247  -10.3829   14.8189 C   0  0  0  0  0  0  0  0  0  0  0  0
    5.8243   -9.7799   14.0172 C   0  0  0  0  0  0  0  0  0  0  0  0
    4.0817  -10.5785   13.5940 N   0  0  0  0  0  0  0  0  0  0  0  0
    3.0538  -10.6099   11.9841 C   0  0  0  0  0  0  0  0  0  0  0  0
    3.3441  -10.1893   10.8449 O   0  0  0  0  0  0  0  0  0  0  0  0
    1.2143  -11.3807   11.9596 C   0  0  0  0  0  0  0  0  0  0  0  0
    0.3455  -13.0871   12.2188 C   0  0  0  0  0  0  0  0  0  0  0  0
   -0.4397  -13.8331   13.1410 C   0  0  0  0  0  0  0  0  0  0  0  0
   -1.1810  -14.9547   12.4738 C   0  0  0  0  0  0  0  0  0  0  0  0
   -0.7472  -14.9577   11.2444 N   0  0  0  0  0  0  0  0  0  0  0  0
    0.4177  -14.3222   11.4901 N   0  0  0  0  0  0  0  0  0  0  0  0
    6.3012   -7.8726   14.1973 C   0  0  0  0  0  0  0  0  0  0  0  0
    6.1746   -6.5675   15.5867 C   0  0  0  0  0  0  0  0  0  0  0  0
    5.0195   -5.7910   15.4133 O   0  0  0  0  0  0  0  0  0  0  0  0
    4.3360   -6.4180   14.3320 C   0  0  0  0  0  0  0  0  0  0  0  0
    4.6852   -8.1280   13.6876 C   0  0  0  0  0  0  0  0  0  0  0  0
   13.0016   -6.0140   17.0384 H   0  0  0  0  0  0  0  0  0  0  0  0
   13.3954   -5.7156   15.6548 H   0  0  0  0  0  0  0  0  0  0  0  0
   12.7787   -7.4113   15.8253 H   0  0  0  0  0  0  0  0  0  0  0  0
   11.4243   -4.6370   17.5311 H   0  0  0  0  0  0  0  0  0  0  0  0
   12.2538   -4.1592   16.0768 H   0  0  0  0  0  0  0  0  0  0  0  0
   10.6155   -3.9470   16.0621 H   0  0  0  0  0  0  0  0  0  0  0  0
   10.2201   -9.7311   15.7837 H   0  0  0  0  0  0  0  0  0  0  0  0
    7.9469  -10.6255   15.9158 H   0  0  0  0  0  0  0  0  0  0  0  0
    8.4673  -10.9475   14.1582 H   0  0  0  0  0  0  0  0  0  0  0  0
    3.5497  -10.9148   14.3579 H   0  0  0  0  0  0  0  0  0  0  0  0
    0.4241  -10.6521   11.7244 H   0  0  0  0  0  0  0  0  0  0  0  0
    1.4368  -11.7341   10.9611 H   0  0  0  0  0  0  0  0  0  0  0  0
   -0.9607  -13.4962   13.9894 H   0  0  0  0  0  0  0  0  0  0  0  0
   -2.0492  -15.5182   12.7963 H   0  0  0  0  0  0  0  0  0  0  0  0
    1.0552  -15.0530   11.7403 H   0  0  0  0  0  0  0  0  0  0  0  0
    6.5981   -7.5469   13.1765 H   0  0  0  0  0  0  0  0  0  0  0  0
    7.1533   -7.9406   14.7642 H   0  0  0  0  0  0  0  0  0  0  0  0
    5.9743   -6.8483   16.5945 H   0  0  0  0  0  0  0  0  0  0  0  0
    7.0844   -6.0312   15.7919 H   0  0  0  0  0  0  0  0  0  0  0  0
    4.1921   -5.7422   13.4740 H   0  0  0  0  0  0  0  0  0  0  0  0
    3.4284   -6.4763   14.9154 H   0  0  0  0  0  0  0  0  0  0  0  0
    3.7928   -8.4838   14.1040 H   0  0  0  0  0  0  0  0  0  0  0  0
    4.1858   -7.9969   12.7313 H   0  0  0  0  0  0  0  0  0  0  0  0
  1  2  1  0
  2  3  1  0
  2  4  1  0
  2  5  1  0
  5  6  2  0
  5  7  1  0
  7  8  1  0
  8  9  1  0
  9 10  1  0
 10 11  1  0
 11 12  2  0
 11 13  1  0
 13 14  1  0
 14 15  2  0
 15 16  1  0
 16 17  2  0
 17 18  1  0
  9 19  1  0
 19 20  1  0
 20 21  1  0
 21 22  1  0
 22 23  1  0
 23  9  1  0
 18 14  1  0
  1 24  1  0
  1 25  1  0
  1 26  1  0
  3 27  1  0
  3 28  1  0
  3 29  1  0
  7 30  1  0
  8 31  1  0
  8 32  1  0
 10 33  1  0
 13 34  1  0
 13 35  1  0
 15 36  1  0
 16 37  1  0
 18 38  1  0
 19 39  1  0
 19 40  1  0
 20 41  1  0
 20 42  1  0
 22 43  1  0
 22 44  1  0
 23 45  1  0
 23 46  1  0
M  END
>  <Energy>  (523) 
1316.805112778733

>  <compound_id>  (523) 
90255

>  <target_id>  (523) 
1

>  <reference_id>  (523) 
81

>  <inspiration_ids>  (523) 
[112, 81]

>  <energy_score>  (523) 
1205.6932188956498

>  <distance_score>  (523) 
14.225538447136156

>  <path>  (523) 
/opt/xchem-fragalysis-2/maxwin/BulkDock/SCRATCH/511016/C90255-P81/C90255-P81.minimised.mol

>  <scratch_subdir>  (523) 
/opt/xchem-fragalysis-2/maxwin/BulkDock/SCRATCH/511016/C90255-P81

>  <fragmenstein_runtime>  (523) 
30.598824739456177

>  <fragmenstein_outcome>  (523) 
too moved

>  <fragmenstein_mode>  (523) 
expansion

>  <fragmenstein_error>  (523) 


$$$$
C90256-P112
     RDKit          3D

 42 43  0  0  0  0  0  0  0  0999 V2000
   12.5498   -5.5021   15.4687 C   0  0  0  0  0  0  0  0  0  0  0  0
   11.0224   -5.5504   15.3730 C   0  0  0  0  0  0  0  0  0  0  0  0
    9.6467   -6.8409   14.9933 O   0  0  0  0  0  0  0  0  0  0  0  0
    7.9397   -6.7594   14.9349 C   0  0  0  0  0  0  0  0  0  0  0  0
    7.2289   -6.0316   15.6964 O   0  0  0  0  0  0  0  0  0  0  0  0
    6.8330   -7.6400   13.6679 C   0  0  0  0  0  0  0  0  0  0  0  0
    7.4265   -8.8057   12.2564 C   0  0  0  0  0  0  0  0  0  0  0  0
    5.9268  -10.3922   12.2365 N   0  0  0  0  0  0  0  0  0  0  0  0
    4.3948  -10.7269   10.9851 C   0  0  0  0  0  0  0  0  0  0  0  0
    4.2035   -9.8951   10.1688 O   0  0  0  0  0  0  0  0  0  0  0  0
    3.4431  -11.9302   10.7136 C   0  0  0  0  0  0  0  0  0  0  0  0
    2.3322  -12.9033    9.7618 C   0  0  0  0  0  0  0  0  0  0  0  0
    2.6744  -14.3082    9.0888 C   0  0  0  0  0  0  0  0  0  0  0  0
    1.9824  -15.5737    9.9853 C   0  0  0  0  0  0  0  0  0  0  0  0
    1.1486  -15.1559   11.0974 N   0  0  0  0  0  0  0  0  0  0  0  0
    1.2541  -13.4825   11.1563 N   0  0  0  0  0  0  0  0  0  0  0  0
    7.4315   -7.0229   11.5824 C   0  0  0  0  0  0  0  0  0  0  0  0
    7.0501   -6.8455    9.6524 C   0  0  0  0  0  0  0  0  0  0  0  0
    8.2798   -6.4864    9.0298 O   0  0  0  0  0  0  0  0  0  0  0  0
    9.2182   -7.4846    9.4000 C   0  0  0  0  0  0  0  0  0  0  0  0
    8.6891   -8.6354   10.4354 C   0  0  0  0  0  0  0  0  0  0  0  0
   12.8417   -4.9876   16.3982 H   0  0  0  0  0  0  0  0  0  0  0  0
   13.0462   -6.4548   15.4858 H   0  0  0  0  0  0  0  0  0  0  0  0
   12.9658   -4.8181   14.7282 H   0  0  0  0  0  0  0  0  0  0  0  0
   10.6927   -4.6137   14.8828 H   0  0  0  0  0  0  0  0  0  0  0  0
   10.9888   -5.5415   16.4647 H   0  0  0  0  0  0  0  0  0  0  0  0
    5.9821   -7.0316   13.2947 H   0  0  0  0  0  0  0  0  0  0  0  0
    6.1433   -8.1738   14.2443 H   0  0  0  0  0  0  0  0  0  0  0  0
    5.9385  -11.1359   12.9545 H   0  0  0  0  0  0  0  0  0  0  0  0
    2.5981  -11.2051   10.6711 H   0  0  0  0  0  0  0  0  0  0  0  0
    4.0274  -12.1880    9.8086 H   0  0  0  0  0  0  0  0  0  0  0  0
    3.4171  -14.4732    8.3190 H   0  0  0  0  0  0  0  0  0  0  0  0
    2.1316  -16.6271    9.7804 H   0  0  0  0  0  0  0  0  0  0  0  0
    0.5801  -12.8991   11.6500 H   0  0  0  0  0  0  0  0  0  0  0  0
    7.6667   -6.3192   12.2865 H   0  0  0  0  0  0  0  0  0  0  0  0
    8.4767   -7.0503   11.4328 H   0  0  0  0  0  0  0  0  0  0  0  0
    6.6902   -7.6551    9.0263 H   0  0  0  0  0  0  0  0  0  0  0  0
    6.2355   -6.1471    9.3972 H   0  0  0  0  0  0  0  0  0  0  0  0
   10.2116   -7.0957    9.5935 H   0  0  0  0  0  0  0  0  0  0  0  0
    9.4163   -8.0029    8.4435 H   0  0  0  0  0  0  0  0  0  0  0  0
    8.0598   -8.8434    9.5139 H   0  0  0  0  0  0  0  0  0  0  0  0
    9.2787   -9.5119   10.0603 H   0  0  0  0  0  0  0  0  0  0  0  0
  1  2  1  0
  2  3  1  0
  3  4  1  0
  4  5  2  0
  4  6  1  0
  6  7  1  0
  7  8  1  0
  8  9  1  0
  9 10  2  0
  9 11  1  0
 11 12  1  0
 12 13  2  0
 13 14  1  0
 14 15  2  0
 15 16  1  0
  7 17  1  0
 17 18  1  0
 18 19  1  0
 19 20  1  0
 20 21  1  0
 21  7  1  0
 16 12  1  0
  1 22  1  0
  1 23  1  0
  1 24  1  0
  2 25  1  0
  2 26  1  0
  6 27  1  0
  6 28  1  0
  8 29  1  0
 11 30  1  0
 11 31  1  0
 13 32  1  0
 14 33  1  0
 16 34  1  0
 17 35  1  0
 17 36  1  0
 18 37  1  0
 18 38  1  0
 20 39  1  0
 20 40  1  0
 21 41  1  0
 21 42  1  0
M  END
>  <Energy>  (524) 
1220.6539597592475

>  <compound_id>  (524) 
90256

>  <target_id>  (524) 
1

>  <reference_id>  (524) 
112

>  <inspiration_ids>  (524) 
[112, 81]

>  <energy_score>  (524) 
1148.0394641647338

>  <distance_score>  (524) 
15.205129997230511

>  <path>  (524) 
/opt/xchem-fragalysis-2/maxwin/BulkDock/SCRATCH/511016/C90256-P112/C90256-P112.minimised.mol

>  <scratch_subdir>  (524) 
/opt/xchem-fragalysis-2/maxwin/BulkDock/SCRATCH/511016/C90256-P112

>  <fragmenstein_runtime>  (524) 
13.169849157333374

>  <fragmenstein_outcome>  (524) 
too moved

>  <fragmenstein_mode>  (524) 
expansion

>  <fragmenstein_error>  (524) 


$$$$
C90256-P81
     RDKit          3D

 42 43  0  0  0  0  0  0  0  0999 V2000
   -8.5238   -8.7771   13.9561 C   0  0  0  0  0  0  0  0  0  0  0  0
   -8.6152   -9.1983   15.4105 C   0  0  0  0  0  0  0  0  0  0  0  0
   -7.4331   -9.9161   15.7933 O   0  0  0  0  0  0  0  0  0  0  0  0
   -6.3803   -9.1569   16.1999 C   0  0  0  0  0  0  0  0  0  0  0  0
   -6.3863   -7.9385   16.3203 O   0  0  0  0  0  0  0  0  0  0  0  0
   -5.1918  -10.0233   16.5350 C   0  0  0  0  0  0  0  0  0  0  0  0
   -5.1706  -10.5031   18.0045 C   0  0  0  0  0  0  0  0  0  0  0  0
   -6.1958  -11.5785   18.1745 N   0  0  0  0  0  0  0  0  0  0  0  0
   -6.3748  -12.8529   17.4738 C   0  0  0  0  0  0  0  0  0  0  0  0
   -5.6965  -13.3891   16.6410 O   0  0  0  0  0  0  0  0  0  0  0  0
   -7.6595  -13.5570   18.0023 C   0  0  0  0  0  0  0  0  0  0  0  0
   -8.1467  -14.7792   17.2426 C   0  0  0  0  0  0  0  0  0  0  0  0
   -9.2931  -15.5390   17.4108 C   0  0  0  0  0  0  0  0  0  0  0  0
   -9.2639  -16.4968   16.3846 C   0  0  0  0  0  0  0  0  0  0  0  0
   -8.1655  -16.3950   15.6381 N   0  0  0  0  0  0  0  0  0  0  0  0
   -7.4925  -15.3668   16.1870 N   0  0  0  0  0  0  0  0  0  0  0  0
   -3.7878  -11.0880   18.3881 C   0  0  0  0  0  0  0  0  0  0  0  0
   -2.6768  -10.0653   18.5993 C   0  0  0  0  0  0  0  0  0  0  0  0
   -3.0312   -8.9134   19.3475 O   0  0  0  0  0  0  0  0  0  0  0  0
   -4.2479   -8.3119   18.9333 C   0  0  0  0  0  0  0  0  0  0  0  0
   -5.4041   -9.3280   18.9884 C   0  0  0  0  0  0  0  0  0  0  0  0
   -8.3497   -9.6469   13.3142 H   0  0  0  0  0  0  0  0  0  0  0  0
   -7.6853   -8.0916   13.7976 H   0  0  0  0  0  0  0  0  0  0  0  0
   -9.4450   -8.2815   13.6372 H   0  0  0  0  0  0  0  0  0  0  0  0
   -9.4606   -9.8812   15.5438 H   0  0  0  0  0  0  0  0  0  0  0  0
   -8.7890   -8.3388   16.0680 H   0  0  0  0  0  0  0  0  0  0  0  0
   -4.2954   -9.4513   16.2777 H   0  0  0  0  0  0  0  0  0  0  0  0
   -5.2123  -10.8639   15.8391 H   0  0  0  0  0  0  0  0  0  0  0  0
   -7.0100  -11.4008   18.7540 H   0  0  0  0  0  0  0  0  0  0  0  0
   -8.4733  -12.8210   17.9992 H   0  0  0  0  0  0  0  0  0  0  0  0
   -7.4660  -13.8503   19.0412 H   0  0  0  0  0  0  0  0  0  0  0  0
  -10.0659  -15.3920   18.1515 H   0  0  0  0  0  0  0  0  0  0  0  0
   -9.9986  -17.2530   16.1449 H   0  0  0  0  0  0  0  0  0  0  0  0
   -6.5991  -15.0874   15.7851 H   0  0  0  0  0  0  0  0  0  0  0  0
   -3.9119  -11.6234   19.3414 H   0  0  0  0  0  0  0  0  0  0  0  0
   -3.4678  -11.8507   17.6704 H   0  0  0  0  0  0  0  0  0  0  0  0
   -2.2706   -9.7485   17.6508 H   0  0  0  0  0  0  0  0  0  0  0  0
   -1.8939  -10.5740   19.1543 H   0  0  0  0  0  0  0  0  0  0  0  0
   -4.1216   -7.8713   17.9400 H   0  0  0  0  0  0  0  0  0  0  0  0
   -4.4587   -7.4903   19.6256 H   0  0  0  0  0  0  0  0  0  0  0  0
   -6.3610   -8.8295   18.8014 H   0  0  0  0  0  0  0  0  0  0  0  0
   -5.4682   -9.7306   20.0089 H   0  0  0  0  0  0  0  0  0  0  0  0
  1  2  1  0
  2  3  1  0
  3  4  1  0
  4  5  2  0
  4  6  1  0
  6  7  1  0
  7  8  1  0
  8  9  1  0
  9 10  2  0
  9 11  1  0
 11 12  1  0
 12 13  2  0
 13 14  1  0
 14 15  2  0
 15 16  1  0
  7 17  1  0
 17 18  1  0
 18 19  1  0
 19 20  1  0
 20 21  1  0
 21  7  1  0
 16 12  1  0
  1 22  1  0
  1 23  1  0
  1 24  1  0
  2 25  1  0
  2 26  1  0
  6 27  1  0
  6 28  1  0
  8 29  1  0
 11 30  1  0
 11 31  1  0
 13 32  1  0
 14 33  1  0
 16 34  1  0
 17 35  1  0
 17 36  1  0
 18 37  1  0
 18 38  1  0
 20 39  1  0
 20 40  1  0
 21 41  1  0
 21 42  1  0
M  END
>  <Energy>  (525) 
18.18262578912227

>  <compound_id>  (525) 
90256

>  <target_id>  (525) 
1

>  <reference_id>  (525) 
81

>  <inspiration_ids>  (525) 
[112, 81]

>  <energy_score>  (525) 
-54.431869805401845

>  <distance_score>  (525) 
14.871089658285799

>  <path>  (525) 
/opt/xchem-fragalysis-2/maxwin/BulkDock/SCRATCH/511016/C90256-P81/C90256-P81.minimised.mol

>  <scratch_subdir>  (525) 
/opt/xchem-fragalysis-2/maxwin/BulkDock/SCRATCH/511016/C90256-P81

>  <fragmenstein_runtime>  (525) 
21.62150526046753

>  <fragmenstein_outcome>  (525) 
too moved

>  <fragmenstein_mode>  (525) 
expansion

>  <fragmenstein_error>  (525) 


$$$$
C90257-P112
     RDKit          3D

 33 34  0  0  0  0  0  0  0  0999 V2000
    3.5705   -5.7164   11.7519 C   0  0  0  0  0  0  0  0  0  0  0  0
    2.9152   -6.5917   10.6526 C   0  0  0  0  0  0  0  0  0  0  0  0
    2.5484   -5.5039    9.5817 C   0  0  0  0  0  0  0  0  0  0  0  0
    1.7879   -4.4492   10.1585 O   0  0  0  0  0  0  0  0  0  0  0  0
    0.7723   -4.8688   11.0533 C   0  0  0  0  0  0  0  0  0  0  0  0
    0.3550   -6.3447   11.0103 C   0  0  0  0  0  0  0  0  0  0  0  0
    1.4659   -7.5493   10.7136 C   0  0  0  0  0  0  0  0  0  0  0  0
    1.0197   -9.3173   11.2647 N   0  0  0  0  0  0  0  0  0  0  0  0
    1.6660  -10.6989   10.9440 C   0  0  0  0  0  0  0  0  0  0  0  0
    2.6254  -10.9767   10.2511 O   0  0  0  0  0  0  0  0  0  0  0  0
    0.5180  -12.0307   11.7882 C   0  0  0  0  0  0  0  0  0  0  0  0
    0.1445  -13.8428   11.7343 C   0  0  0  0  0  0  0  0  0  0  0  0
    0.6007  -15.1880   11.4959 C   0  0  0  0  0  0  0  0  0  0  0  0
   -0.4462  -16.1754   11.5731 C   0  0  0  0  0  0  0  0  0  0  0  0
   -1.5577  -15.5133   11.8112 N   0  0  0  0  0  0  0  0  0  0  0  0
   -1.1168  -14.3226   11.3878 N   0  0  0  0  0  0  0  0  0  0  0  0
    4.2194   -4.9860   11.2765 H   0  0  0  0  0  0  0  0  0  0  0  0
    2.9089   -5.0548   12.3074 H   0  0  0  0  0  0  0  0  0  0  0  0
    4.1756   -6.2855   12.4547 H   0  0  0  0  0  0  0  0  0  0  0  0
    3.7576   -7.1603   10.2592 H   0  0  0  0  0  0  0  0  0  0  0  0
    1.9826   -5.8876    8.7273 H   0  0  0  0  0  0  0  0  0  0  0  0
    3.4600   -5.0609    9.1627 H   0  0  0  0  0  0  0  0  0  0  0  0
   -0.1098   -4.2568   10.8261 H   0  0  0  0  0  0  0  0  0  0  0  0
    1.0343   -4.5734   12.0729 H   0  0  0  0  0  0  0  0  0  0  0  0
   -0.2839   -6.5375   11.8742 H   0  0  0  0  0  0  0  0  0  0  0  0
   -0.3359   -6.3699   10.1489 H   0  0  0  0  0  0  0  0  0  0  0  0
    1.0879   -7.6700    9.6879 H   0  0  0  0  0  0  0  0  0  0  0  0
    0.3196   -9.4382   11.9215 H   0  0  0  0  0  0  0  0  0  0  0  0
   -0.4615  -11.5901   11.6679 H   0  0  0  0  0  0  0  0  0  0  0  0
    0.6602  -11.9976   12.8644 H   0  0  0  0  0  0  0  0  0  0  0  0
    1.5102  -15.5619   11.0935 H   0  0  0  0  0  0  0  0  0  0  0  0
   -0.4021  -17.2539   11.4859 H   0  0  0  0  0  0  0  0  0  0  0  0
   -1.6022  -13.9937   10.5859 H   0  0  0  0  0  0  0  0  0  0  0  0
  1  2  1  0
  2  3  1  0
  3  4  1  0
  4  5  1  0
  5  6  1  0
  6  7  1  0
  7  8  1  0
  8  9  1  0
  9 10  2  0
  9 11  1  0
 11 12  1  0
 12 13  2  0
 13 14  1  0
 14 15  2  0
 15 16  1  0
  7  2  1  0
 16 12  1  0
  1 17  1  0
  1 18  1  0
  1 19  1  0
  2 20  1  0
  3 21  1  0
  3 22  1  0
  5 23  1  0
  5 24  1  0
  6 25  1  0
  6 26  1  0
  7 27  1  0
  8 28  1  0
 11 29  1  0
 11 30  1  0
 13 31  1  0
 14 32  1  0
 16 33  1  0
M  END
>  <Energy>  (526) 
297.84462433029506

>  <compound_id>  (526) 
90257

>  <target_id>  (526) 
1

>  <reference_id>  (526) 
112

>  <inspiration_ids>  (526) 
[112, 81]

>  <energy_score>  (526) 
252.01268991987234

>  <distance_score>  (526) 
14.612911647952457

>  <path>  (526) 
/opt/xchem-fragalysis-2/maxwin/BulkDock/SCRATCH/511016/C90257-P112/C90257-P112.minimised.mol

>  <scratch_subdir>  (526) 
/opt/xchem-fragalysis-2/maxwin/BulkDock/SCRATCH/511016/C90257-P112

>  <fragmenstein_runtime>  (526) 
13.132157802581787

>  <fragmenstein_outcome>  (526) 
too moved

>  <fragmenstein_mode>  (526) 
expansion

>  <fragmenstein_error>  (526) 


$$$$
C90257-P81
     RDKit          3D

 33 34  0  0  0  0  0  0  0  0999 V2000
    8.6399   -9.9819   14.7802 C   0  0  0  0  0  0  0  0  0  0  0  0
    7.2402   -9.4893   13.7926 C   0  0  0  0  0  0  0  0  0  0  0  0
    7.4406   -8.0658   14.0195 C   0  0  0  0  0  0  0  0  0  0  0  0
    6.4140   -7.3658   14.7609 O   0  0  0  0  0  0  0  0  0  0  0  0
    5.0924   -6.9463   13.8797 C   0  0  0  0  0  0  0  0  0  0  0  0
    4.5903   -8.2846   13.5992 C   0  0  0  0  0  0  0  0  0  0  0  0
    5.1938   -9.8658   13.8849 C   0  0  0  0  0  0  0  0  0  0  0  0
    3.6136  -10.5053   13.3580 N   0  0  0  0  0  0  0  0  0  0  0  0
    2.8865  -10.6996   11.7143 C   0  0  0  0  0  0  0  0  0  0  0  0
    3.3772  -10.5036   10.6044 O   0  0  0  0  0  0  0  0  0  0  0  0
    1.0968  -11.4046   11.6587 C   0  0  0  0  0  0  0  0  0  0  0  0
    0.3460  -13.0863   11.9192 C   0  0  0  0  0  0  0  0  0  0  0  0
    0.1863  -14.4573   11.4807 C   0  0  0  0  0  0  0  0  0  0  0  0
   -0.7496  -15.1542   12.2454 C   0  0  0  0  0  0  0  0  0  0  0  0
   -0.9813  -14.4148   13.3068 N   0  0  0  0  0  0  0  0  0  0  0  0
   -0.1036  -13.3634   13.1727 N   0  0  0  0  0  0  0  0  0  0  0  0
    8.3932  -10.1928   15.8262 H   0  0  0  0  0  0  0  0  0  0  0  0
    9.1220  -10.8573   14.3263 H   0  0  0  0  0  0  0  0  0  0  0  0
    9.4166   -9.2390   14.8948 H   0  0  0  0  0  0  0  0  0  0  0  0
    7.0949  -10.4215   14.1951 H   0  0  0  0  0  0  0  0  0  0  0  0
    7.5557   -7.6941   12.9869 H   0  0  0  0  0  0  0  0  0  0  0  0
    8.3302   -7.7935   14.5776 H   0  0  0  0  0  0  0  0  0  0  0  0
    4.4306   -6.3115   14.4996 H   0  0  0  0  0  0  0  0  0  0  0  0
    5.2905   -6.4541   12.9008 H   0  0  0  0  0  0  0  0  0  0  0  0
    5.5519   -8.1100   13.2921 H   0  0  0  0  0  0  0  0  0  0  0  0
    3.9548   -8.1301   12.7438 H   0  0  0  0  0  0  0  0  0  0  0  0
    5.4293  -10.7801   13.3066 H   0  0  0  0  0  0  0  0  0  0  0  0
    2.9447  -10.6614   14.0424 H   0  0  0  0  0  0  0  0  0  0  0  0
    0.3622  -10.7770   12.1173 H   0  0  0  0  0  0  0  0  0  0  0  0
    0.7266  -11.0324   10.7420 H   0  0  0  0  0  0  0  0  0  0  0  0
    0.6282  -15.0710   10.7122 H   0  0  0  0  0  0  0  0  0  0  0  0
   -1.1833  -16.1393   12.1319 H   0  0  0  0  0  0  0  0  0  0  0  0
    0.0892  -12.8299   13.9975 H   0  0  0  0  0  0  0  0  0  0  0  0
  1  2  1  0
  2  3  1  0
  3  4  1  0
  4  5  1  0
  5  6  1  0
  6  7  1  0
  7  8  1  0
  8  9  1  0
  9 10  2  0
  9 11  1  0
 11 12  1  0
 12 13  2  0
 13 14  1  0
 14 15  2  0
 15 16  1  0
  7  2  1  0
 16 12  1  0
  1 17  1  0
  1 18  1  0
  1 19  1  0
  2 20  1  0
  3 21  1  0
  3 22  1  0
  5 23  1  0
  5 24  1  0
  6 25  1  0
  6 26  1  0
  7 27  1  0
  8 28  1  0
 11 29  1  0
 11 30  1  0
 13 31  1  0
 14 32  1  0
 16 33  1  0
M  END
>  <Energy>  (527) 
594.9544351936762

>  <compound_id>  (527) 
90257

>  <target_id>  (527) 
1

>  <reference_id>  (527) 
81

>  <inspiration_ids>  (527) 
[112, 81]

>  <energy_score>  (527) 
549.1225007832439

>  <distance_score>  (527) 
14.360938757007663

>  <path>  (527) 
/opt/xchem-fragalysis-2/maxwin/BulkDock/SCRATCH/511016/C90257-P81/C90257-P81.minimised.mol

>  <scratch_subdir>  (527) 
/opt/xchem-fragalysis-2/maxwin/BulkDock/SCRATCH/511016/C90257-P81

>  <fragmenstein_runtime>  (527) 
10.429375648498535

>  <fragmenstein_outcome>  (527) 
too moved

>  <fragmenstein_mode>  (527) 
expansion

>  <fragmenstein_error>  (527) 


$$$$
C90258-P112
     RDKit          3D

 40 41  0  0  0  0  0  0  0  0999 V2000
   11.4359  -12.0045   15.0777 C   0  0  0  0  0  0  0  0  0  0  0  0
   10.5892  -11.0670   14.2293 C   0  0  0  0  0  0  0  0  0  0  0  0
   11.0861  -10.4477   13.3281 O   0  0  0  0  0  0  0  0  0  0  0  0
    9.1784  -11.0282   14.7992 N   0  0  0  0  0  0  0  0  0  0  0  0
    7.7537   -9.9489   14.4194 C   0  0  0  0  0  0  0  0  0  0  0  0
    5.9882  -10.6585   14.1245 C   0  0  0  0  0  0  0  0  0  0  0  0
    4.8369  -11.3858   14.2208 N   0  0  0  0  0  0  0  0  0  0  0  0
    3.6819  -11.3607   15.2797 C   0  0  0  0  0  0  0  0  0  0  0  0
    3.5852  -10.7438   16.3331 O   0  0  0  0  0  0  0  0  0  0  0  0
    1.9156  -12.4053   14.7632 C   0  0  0  0  0  0  0  0  0  0  0  0
    0.8228  -12.8705   13.1684 C   0  0  0  0  0  0  0  0  0  0  0  0
    0.6139  -13.9901   12.3387 C   0  0  0  0  0  0  0  0  0  0  0  0
   -0.5110  -13.7939   11.6185 C   0  0  0  0  0  0  0  0  0  0  0  0
   -0.6640  -12.4947   11.4695 N   0  0  0  0  0  0  0  0  0  0  0  0
    0.1962  -11.9629   12.3050 N   0  0  0  0  0  0  0  0  0  0  0  0
    6.7402   -8.0962   14.1402 C   0  0  0  0  0  0  0  0  0  0  0  0
    6.8842   -6.9511   15.1099 C   0  0  0  0  0  0  0  0  0  0  0  0
    8.3796   -6.8193   14.8671 O   0  0  0  0  0  0  0  0  0  0  0  0
    9.5586   -8.1188   15.3719 C   0  0  0  0  0  0  0  0  0  0  0  0
    8.8453   -9.5125   15.8295 C   0  0  0  0  0  0  0  0  0  0  0  0
   10.8402  -12.7377   15.6253 H   0  0  0  0  0  0  0  0  0  0  0  0
   12.0004  -11.4050   15.7974 H   0  0  0  0  0  0  0  0  0  0  0  0
   12.1349  -12.5414   14.4307 H   0  0  0  0  0  0  0  0  0  0  0  0
    9.0797  -11.7549   15.5149 H   0  0  0  0  0  0  0  0  0  0  0  0
    6.2202  -11.3087   13.2946 H   0  0  0  0  0  0  0  0  0  0  0  0
    5.3641   -9.8515   13.8418 H   0  0  0  0  0  0  0  0  0  0  0  0
    4.6478  -12.0217   13.5665 H   0  0  0  0  0  0  0  0  0  0  0  0
    1.5879  -11.6259   14.0434 H   0  0  0  0  0  0  0  0  0  0  0  0
    2.5708  -13.0715   14.4685 H   0  0  0  0  0  0  0  0  0  0  0  0
    1.0761  -14.9299   12.1735 H   0  0  0  0  0  0  0  0  0  0  0  0
   -1.1165  -14.5057   11.0711 H   0  0  0  0  0  0  0  0  0  0  0  0
    0.4522  -11.0079   12.0897 H   0  0  0  0  0  0  0  0  0  0  0  0
    7.0117   -7.6505   13.1393 H   0  0  0  0  0  0  0  0  0  0  0  0
    5.6529   -8.1372   14.0387 H   0  0  0  0  0  0  0  0  0  0  0  0
    6.5988   -6.7179   16.1498 H   0  0  0  0  0  0  0  0  0  0  0  0
    6.0918   -6.2362   14.9203 H   0  0  0  0  0  0  0  0  0  0  0  0
   10.1618   -8.6440   14.7246 H   0  0  0  0  0  0  0  0  0  0  0  0
   10.0012   -7.1799   15.5588 H   0  0  0  0  0  0  0  0  0  0  0  0
    8.4502   -9.9068   16.7789 H   0  0  0  0  0  0  0  0  0  0  0  0
    9.8326   -9.9575   16.1353 H   0  0  0  0  0  0  0  0  0  0  0  0
  1  2  1  0
  2  3  2  0
  2  4  1  0
  4  5  1  0
  5  6  1  0
  6  7  1  0
  7  8  1  0
  8  9  2  0
  8 10  1  0
 10 11  1  0
 11 12  2  0
 12 13  1  0
 13 14  2  0
 14 15  1  0
  5 16  1  0
 16 17  1  0
 17 18  1  0
 18 19  1  0
 19 20  1  0
 20  5  1  0
 15 11  1  0
  1 21  1  0
  1 22  1  0
  1 23  1  0
  4 24  1  0
  6 25  1  0
  6 26  1  0
  7 27  1  0
 10 28  1  0
 10 29  1  0
 12 30  1  0
 13 31  1  0
 15 32  1  0
 16 33  1  0
 16 34  1  0
 17 35  1  0
 17 36  1  0
 19 37  1  0
 19 38  1  0
 20 39  1  0
 20 40  1  0
M  END
>  <Energy>  (528) 
861.21791864674356

>  <compound_id>  (528) 
90258

>  <target_id>  (528) 
1

>  <reference_id>  (528) 
112

>  <inspiration_ids>  (528) 
[112, 81]

>  <energy_score>  (528) 
817.7506955099758

>  <distance_score>  (528) 
14.672104247242443

>  <path>  (528) 
/opt/xchem-fragalysis-2/maxwin/BulkDock/SCRATCH/511016/C90258-P112/C90258-P112.minimised.mol

>  <scratch_subdir>  (528) 
/opt/xchem-fragalysis-2/maxwin/BulkDock/SCRATCH/511016/C90258-P112

>  <fragmenstein_runtime>  (528) 
13.120808124542236

>  <fragmenstein_outcome>  (528) 
too moved

>  <fragmenstein_mode>  (528) 
expansion

>  <fragmenstein_error>  (528) 


$$$$
C90258-P81
     RDKit          3D

 40 41  0  0  0  0  0  0  0  0999 V2000
   -3.6835   -8.5553    6.2362 C   0  0  0  0  0  0  0  0  0  0  0  0
   -2.8865   -8.2696    7.4926 C   0  0  0  0  0  0  0  0  0  0  0  0
   -1.8027   -7.7723    7.4148 O   0  0  0  0  0  0  0  0  0  0  0  0
   -3.6458   -8.6891    8.6362 N   0  0  0  0  0  0  0  0  0  0  0  0
   -3.3747   -8.5526   10.0878 C   0  0  0  0  0  0  0  0  0  0  0  0
   -4.5887   -9.2896   10.8033 C   0  0  0  0  0  0  0  0  0  0  0  0
   -4.7824  -10.7289   10.4821 N   0  0  0  0  0  0  0  0  0  0  0  0
   -5.7226  -11.7177   11.0268 C   0  0  0  0  0  0  0  0  0  0  0  0
   -6.6232  -11.5912   11.8112 O   0  0  0  0  0  0  0  0  0  0  0  0
   -5.4479  -13.1301   10.4051 C   0  0  0  0  0  0  0  0  0  0  0  0
   -6.1704  -14.3320   11.0239 C   0  0  0  0  0  0  0  0  0  0  0  0
   -5.8744  -15.6883   10.9868 C   0  0  0  0  0  0  0  0  0  0  0  0
   -6.9271  -16.3332   11.6684 C   0  0  0  0  0  0  0  0  0  0  0  0
   -7.8335  -15.4641   12.1173 N   0  0  0  0  0  0  0  0  0  0  0  0
   -7.3454  -14.2621   11.7379 N   0  0  0  0  0  0  0  0  0  0  0  0
   -3.3164   -7.0409   10.4919 C   0  0  0  0  0  0  0  0  0  0  0  0
   -1.8944   -6.4499   10.4892 C   0  0  0  0  0  0  0  0  0  0  0  0
   -1.0193   -7.0954   11.4096 O   0  0  0  0  0  0  0  0  0  0  0  0
   -1.3414   -8.4661   11.6367 C   0  0  0  0  0  0  0  0  0  0  0  0
   -2.0079   -9.1632   10.4487 C   0  0  0  0  0  0  0  0  0  0  0  0
   -3.0570   -8.3781    5.3569 H   0  0  0  0  0  0  0  0  0  0  0  0
   -4.0097   -9.5991    6.2203 H   0  0  0  0  0  0  0  0  0  0  0  0
   -4.5510   -7.8911    6.1919 H   0  0  0  0  0  0  0  0  0  0  0  0
   -4.5647   -8.9932    8.3301 H   0  0  0  0  0  0  0  0  0  0  0  0
   -5.5265   -8.8057   10.4999 H   0  0  0  0  0  0  0  0  0  0  0  0
   -4.5488   -9.1743   11.8873 H   0  0  0  0  0  0  0  0  0  0  0  0
   -4.0981  -11.2041    9.9051 H   0  0  0  0  0  0  0  0  0  0  0  0
   -4.3709  -13.3245   10.4580 H   0  0  0  0  0  0  0  0  0  0  0  0
   -5.7305  -13.0759    9.3467 H   0  0  0  0  0  0  0  0  0  0  0  0
   -5.0183  -16.1540   10.5183 H   0  0  0  0  0  0  0  0  0  0  0  0
   -7.0667  -17.3917   11.8463 H   0  0  0  0  0  0  0  0  0  0  0  0
   -7.8492  -13.4183   12.0042 H   0  0  0  0  0  0  0  0  0  0  0  0
   -3.7121   -6.9359   11.5108 H   0  0  0  0  0  0  0  0  0  0  0  0
   -3.9639   -6.4462    9.8365 H   0  0  0  0  0  0  0  0  0  0  0  0
   -1.4429   -6.4951    9.4955 H   0  0  0  0  0  0  0  0  0  0  0  0
   -1.9366   -5.3918   10.7682 H   0  0  0  0  0  0  0  0  0  0  0  0
   -0.4165   -8.9935   11.8457 H   0  0  0  0  0  0  0  0  0  0  0  0
   -1.9639   -8.5135   12.5334 H   0  0  0  0  0  0  0  0  0  0  0  0
   -1.3219   -9.0378    9.6079 H   0  0  0  0  0  0  0  0  0  0  0  0
   -2.0858  -10.2375   10.6252 H   0  0  0  0  0  0  0  0  0  0  0  0
  1  2  1  0
  2  3  2  0
  2  4  1  0
  4  5  1  0
  5  6  1  0
  6  7  1  0
  7  8  1  0
  8  9  2  0
  8 10  1  0
 10 11  1  0
 11 12  2  0
 12 13  1  0
 13 14  2  0
 14 15  1  0
  5 16  1  0
 16 17  1  0
 17 18  1  0
 18 19  1  0
 19 20  1  0
 20  5  1  0
 15 11  1  0
  1 21  1  0
  1 22  1  0
  1 23  1  0
  4 24  1  0
  6 25  1  0
  6 26  1  0
  7 27  1  0
 10 28  1  0
 10 29  1  0
 12 30  1  0
 13 31  1  0
 15 32  1  0
 16 33  1  0
 16 34  1  0
 17 35  1  0
 17 36  1  0
 19 37  1  0
 19 38  1  0
 20 39  1  0
 20 40  1  0
M  END
>  <Energy>  (529) 
33.830312302909228

>  <compound_id>  (529) 
90258

>  <target_id>  (529) 
1

>  <reference_id>  (529) 
81

>  <inspiration_ids>  (529) 
[112, 81]

>  <energy_score>  (529) 
-9.6369108338599

>  <distance_score>  (529) 
14.132634523341018

>  <path>  (529) 
/opt/xchem-fragalysis-2/maxwin/BulkDock/SCRATCH/511016/C90258-P81/C90258-P81.minimised.mol

>  <scratch_subdir>  (529) 
/opt/xchem-fragalysis-2/maxwin/BulkDock/SCRATCH/511016/C90258-P81

>  <fragmenstein_runtime>  (529) 
21.48826813697815

>  <fragmenstein_outcome>  (529) 
too moved

>  <fragmenstein_mode>  (529) 
expansion

>  <fragmenstein_error>  (529) 


$$$$
C90259-P112
     RDKit          3D

 48 49  0  0  0  0  0  0  0  0999 V2000
   15.6711   -4.0956   16.5560 C   0  0  0  0  0  0  0  0  0  0  0  0
   14.4127   -3.3908   16.3151 N   0  0  0  0  0  0  0  0  0  0  0  0
   14.4479   -2.0965   17.0026 C   0  0  0  0  0  0  0  0  0  0  0  0
   13.2602   -4.2191   16.7765 C   0  0  0  0  0  0  0  0  0  0  0  0
   11.9386   -3.6589   16.2133 C   0  0  0  0  0  0  0  0  0  0  0  0
   11.5390   -2.6122   16.6460 O   0  0  0  0  0  0  0  0  0  0  0  0
   11.4341   -4.4917   15.1416 N   0  0  0  0  0  0  0  0  0  0  0  0
   10.3669   -4.2756   14.2093 C   0  0  0  0  0  0  0  0  0  0  0  0
    8.4516   -4.9363   13.9206 C   0  0  0  0  0  0  0  0  0  0  0  0
    7.2238   -6.2680   12.5518 N   0  0  0  0  0  0  0  0  0  0  0  0
    5.2477   -6.7598   12.7389 C   0  0  0  0  0  0  0  0  0  0  0  0
    4.7079   -6.3966   13.7156 O   0  0  0  0  0  0  0  0  0  0  0  0
    3.7556   -7.6499   11.4493 C   0  0  0  0  0  0  0  0  0  0  0  0
    3.1178   -9.5851   11.4188 C   0  0  0  0  0  0  0  0  0  0  0  0
    1.6271   -9.8899   11.1163 C   0  0  0  0  0  0  0  0  0  0  0  0
    1.4610  -11.1798   11.2025 C   0  0  0  0  0  0  0  0  0  0  0  0
    2.5458  -11.6542   10.5450 N   0  0  0  0  0  0  0  0  0  0  0  0
    3.4174  -10.6621   10.5417 N   0  0  0  0  0  0  0  0  0  0  0  0
    7.8493   -3.3936   15.2251 C   0  0  0  0  0  0  0  0  0  0  0  0
    5.9055   -3.0362   14.8543 C   0  0  0  0  0  0  0  0  0  0  0  0
    5.7143   -2.3192   13.6794 O   0  0  0  0  0  0  0  0  0  0  0  0
    6.8957   -1.6202   13.8201 C   0  0  0  0  0  0  0  0  0  0  0  0
    7.9948   -2.8038   13.8691 C   0  0  0  0  0  0  0  0  0  0  0  0
   16.5290   -3.4706   16.2817 H   0  0  0  0  0  0  0  0  0  0  0  0
   15.7871   -4.3976   17.6029 H   0  0  0  0  0  0  0  0  0  0  0  0
   15.7366   -4.9808   15.9168 H   0  0  0  0  0  0  0  0  0  0  0  0
   14.4295   -2.2045   18.0930 H   0  0  0  0  0  0  0  0  0  0  0  0
   13.6177   -1.4564   16.6943 H   0  0  0  0  0  0  0  0  0  0  0  0
   15.3537   -1.5402   16.7330 H   0  0  0  0  0  0  0  0  0  0  0  0
   13.3771   -5.2179   16.3709 H   0  0  0  0  0  0  0  0  0  0  0  0
   13.1966   -4.2878   17.8681 H   0  0  0  0  0  0  0  0  0  0  0  0
   12.0709   -5.2633   14.9963 H   0  0  0  0  0  0  0  0  0  0  0  0
   10.8731   -4.0428   13.2576 H   0  0  0  0  0  0  0  0  0  0  0  0
   10.1880   -3.2780   14.5985 H   0  0  0  0  0  0  0  0  0  0  0  0
    7.5994   -6.7107   11.7134 H   0  0  0  0  0  0  0  0  0  0  0  0
    2.8604   -7.0181   11.5034 H   0  0  0  0  0  0  0  0  0  0  0  0
    4.1045   -7.4269   10.4060 H   0  0  0  0  0  0  0  0  0  0  0  0
    0.9551   -9.0782   11.1104 H   0  0  0  0  0  0  0  0  0  0  0  0
    0.5987  -11.7927   11.4604 H   0  0  0  0  0  0  0  0  0  0  0  0
    3.9982  -10.6249    9.7303 H   0  0  0  0  0  0  0  0  0  0  0  0
    8.3521   -2.4637   15.6330 H   0  0  0  0  0  0  0  0  0  0  0  0
    8.0218   -4.0786   15.9945 H   0  0  0  0  0  0  0  0  0  0  0  0
    5.2683   -3.9173   15.0279 H   0  0  0  0  0  0  0  0  0  0  0  0
    5.2291   -2.3110   15.3205 H   0  0  0  0  0  0  0  0  0  0  0  0
    6.9993   -0.9466   12.9619 H   0  0  0  0  0  0  0  0  0  0  0  0
    6.9444   -0.9913   14.7230 H   0  0  0  0  0  0  0  0  0  0  0  0
    7.9875   -2.4999   12.8555 H   0  0  0  0  0  0  0  0  0  0  0  0
    8.9440   -2.2050   14.1117 H   0  0  0  0  0  0  0  0  0  0  0  0
  1  2  1  0
  2  3  1  0
  2  4  1  0
  4  5  1  0
  5  6  2  0
  5  7  1  0
  7  8  1  0
  8  9  1  0
  9 10  1  0
 10 11  1  0
 11 12  2  0
 11 13  1  0
 13 14  1  0
 14 15  2  0
 15 16  1  0
 16 17  2  0
 17 18  1  0
  9 19  1  0
 19 20  1  0
 20 21  1  0
 21 22  1  0
 22 23  1  0
 23  9  1  0
 18 14  1  0
  1 24  1  0
  1 25  1  0
  1 26  1  0
  3 27  1  0
  3 28  1  0
  3 29  1  0
  4 30  1  0
  4 31  1  0
  7 32  1  0
  8 33  1  0
  8 34  1  0
 10 35  1  0
 13 36  1  0
 13 37  1  0
 15 38  1  0
 16 39  1  0
 18 40  1  0
 19 41  1  0
 19 42  1  0
 20 43  1  0
 20 44  1  0
 22 45  1  0
 22 46  1  0
 23 47  1  0
 23 48  1  0
M  END
>  <Energy>  (530) 
1347.1394385595679

>  <compound_id>  (530) 
90259

>  <target_id>  (530) 
1

>  <reference_id>  (530) 
112

>  <inspiration_ids>  (530) 
[112, 81]

>  <energy_score>  (530) 
1232.9508487197015

>  <distance_score>  (530) 
17.024375381777865

>  <path>  (530) 
/opt/xchem-fragalysis-2/maxwin/BulkDock/SCRATCH/511016/C90259-P112/C90259-P112.minimised.mol

>  <scratch_subdir>  (530) 
/opt/xchem-fragalysis-2/maxwin/BulkDock/SCRATCH/511016/C90259-P112

>  <fragmenstein_runtime>  (530) 
18.64020347595215

>  <fragmenstein_outcome>  (530) 
too moved

>  <fragmenstein_mode>  (530) 
expansion

>  <fragmenstein_error>  (530) 


$$$$
C90259-P81
     RDKit          3D

 48 49  0  0  0  0  0  0  0  0999 V2000
   14.9894   -1.8789   17.6120 C   0  0  0  0  0  0  0  0  0  0  0  0
   14.3549   -3.0951   17.1023 N   0  0  0  0  0  0  0  0  0  0  0  0
   15.3521   -3.9237   16.4301 C   0  0  0  0  0  0  0  0  0  0  0  0
   13.2364   -2.7601   16.2002 C   0  0  0  0  0  0  0  0  0  0  0  0
   12.2458   -3.9589   15.9770 C   0  0  0  0  0  0  0  0  0  0  0  0
   12.0334   -4.7409   16.8460 O   0  0  0  0  0  0  0  0  0  0  0  0
   11.6590   -3.8278   14.6695 N   0  0  0  0  0  0  0  0  0  0  0  0
   10.6610   -4.6914   13.9379 C   0  0  0  0  0  0  0  0  0  0  0  0
    8.6834   -5.2559   14.0744 C   0  0  0  0  0  0  0  0  0  0  0  0
    7.7373   -6.5630   12.5780 N   0  0  0  0  0  0  0  0  0  0  0  0
    5.9186   -6.5842   11.8523 C   0  0  0  0  0  0  0  0  0  0  0  0
    5.0611   -5.8349   12.3050 O   0  0  0  0  0  0  0  0  0  0  0  0
    5.1399   -7.5910   10.2169 C   0  0  0  0  0  0  0  0  0  0  0  0
    4.1265   -9.3463   10.0618 C   0  0  0  0  0  0  0  0  0  0  0  0
    4.2258  -10.4615    8.9372 C   0  0  0  0  0  0  0  0  0  0  0  0
    3.3892  -11.5305    9.2448 C   0  0  0  0  0  0  0  0  0  0  0  0
    2.8475  -11.3515   10.4420 N   0  0  0  0  0  0  0  0  0  0  0  0
    3.0839  -10.0781   10.7984 N   0  0  0  0  0  0  0  0  0  0  0  0
    7.8798   -3.2493   13.8536 C   0  0  0  0  0  0  0  0  0  0  0  0
    7.8569   -1.6480   14.5970 C   0  0  0  0  0  0  0  0  0  0  0  0
    8.8678   -1.4181   15.5475 O   0  0  0  0  0  0  0  0  0  0  0  0
    9.7198   -2.4970   15.2383 C   0  0  0  0  0  0  0  0  0  0  0  0
    8.6782   -3.8034   15.1600 C   0  0  0  0  0  0  0  0  0  0  0  0
   14.2704   -1.2698   18.1695 H   0  0  0  0  0  0  0  0  0  0  0  0
   15.7948   -2.1282   18.3121 H   0  0  0  0  0  0  0  0  0  0  0  0
   15.4084   -1.2639   16.8072 H   0  0  0  0  0  0  0  0  0  0  0  0
   14.8995   -4.8411   16.0545 H   0  0  0  0  0  0  0  0  0  0  0  0
   16.1381   -4.2260   17.1310 H   0  0  0  0  0  0  0  0  0  0  0  0
   15.8232   -3.4059   15.5865 H   0  0  0  0  0  0  0  0  0  0  0  0
   13.6212   -2.3763   15.2481 H   0  0  0  0  0  0  0  0  0  0  0  0
   12.6249   -1.9668   16.6483 H   0  0  0  0  0  0  0  0  0  0  0  0
   12.1438   -3.0940   14.1602 H   0  0  0  0  0  0  0  0  0  0  0  0
   11.1818   -5.2266   13.1481 H   0  0  0  0  0  0  0  0  0  0  0  0
   10.6831   -3.8472   13.2051 H   0  0  0  0  0  0  0  0  0  0  0  0
    8.2709   -7.2986   12.1425 H   0  0  0  0  0  0  0  0  0  0  0  0
    5.8277   -7.5131    9.3614 H   0  0  0  0  0  0  0  0  0  0  0  0
    4.3031   -6.9108    9.9884 H   0  0  0  0  0  0  0  0  0  0  0  0
    4.8684  -10.3635    8.0656 H   0  0  0  0  0  0  0  0  0  0  0  0
    3.2504  -12.4600    8.7061 H   0  0  0  0  0  0  0  0  0  0  0  0
    2.6109   -9.7277   11.6230 H   0  0  0  0  0  0  0  0  0  0  0  0
    6.7357   -3.2452   13.9936 H   0  0  0  0  0  0  0  0  0  0  0  0
    7.9011   -2.7977   12.8893 H   0  0  0  0  0  0  0  0  0  0  0  0
    6.8848   -1.5169   15.0909 H   0  0  0  0  0  0  0  0  0  0  0  0
    7.9184   -0.8929   13.8128 H   0  0  0  0  0  0  0  0  0  0  0  0
   10.2343   -2.1908   14.3373 H   0  0  0  0  0  0  0  0  0  0  0  0
   10.4402   -2.5055   16.0496 H   0  0  0  0  0  0  0  0  0  0  0  0
    7.7088   -3.3723   15.6261 H   0  0  0  0  0  0  0  0  0  0  0  0
    8.3357   -4.4462   15.9391 H   0  0  0  0  0  0  0  0  0  0  0  0
  1  2  1  0
  2  3  1  0
  2  4  1  0
  4  5  1  0
  5  6  2  0
  5  7  1  0
  7  8  1  0
  8  9  1  0
  9 10  1  0
 10 11  1  0
 11 12  2  0
 11 13  1  0
 13 14  1  0
 14 15  2  0
 15 16  1  0
 16 17  2  0
 17 18  1  0
  9 19  1  0
 19 20  1  0
 20 21  1  0
 21 22  1  0
 22 23  1  0
 23  9  1  0
 18 14  1  0
  1 24  1  0
  1 25  1  0
  1 26  1  0
  3 27  1  0
  3 28  1  0
  3 29  1  0
  4 30  1  0
  4 31  1  0
  7 32  1  0
  8 33  1  0
  8 34  1  0
 10 35  1  0
 13 36  1  0
 13 37  1  0
 15 38  1  0
 16 39  1  0
 18 40  1  0
 19 41  1  0
 19 42  1  0
 20 43  1  0
 20 44  1  0
 22 45  1  0
 22 46  1  0
 23 47  1  0
 23 48  1  0
M  END
>  <Energy>  (531) 
1094.159931934794

>  <compound_id>  (531) 
90259

>  <target_id>  (531) 
1

>  <reference_id>  (531) 
81

>  <inspiration_ids>  (531) 
[112, 81]

>  <energy_score>  (531) 
979.9713420949176

>  <distance_score>  (531) 
17.377301882564943

>  <path>  (531) 
/opt/xchem-fragalysis-2/maxwin/BulkDock/SCRATCH/511016/C90259-P81/C90259-P81.minimised.mol

>  <scratch_subdir>  (531) 
/opt/xchem-fragalysis-2/maxwin/BulkDock/SCRATCH/511016/C90259-P81

>  <fragmenstein_runtime>  (531) 
23.36554455757141

>  <fragmenstein_outcome>  (531) 
too moved

>  <fragmenstein_mode>  (531) 
expansion

>  <fragmenstein_error>  (531) 


$$$$
C90260-P112
     RDKit          3D

 39 40  0  0  0  0  0  0  0  0999 V2000
    3.5736   -4.4162   14.2897 C   0  0  0  0  0  0  0  0  0  0  0  0
    4.0348   -5.7704   14.9170 C   0  0  0  0  0  0  0  0  0  0  0  0
    4.8088   -5.5132   16.1937 C   0  0  0  0  0  0  0  0  0  0  0  0
    4.5385   -6.9408   13.7776 C   0  0  0  0  0  0  0  0  0  0  0  0
    4.0767   -8.4635   13.9526 C   0  0  0  0  0  0  0  0  0  0  0  0
    4.4432  -10.3187   14.6122 C   0  0  0  0  0  0  0  0  0  0  0  0
    3.6234  -11.4608   15.9429 N   0  0  0  0  0  0  0  0  0  0  0  0
    4.1522  -11.9978   17.4456 C   0  0  0  0  0  0  0  0  0  0  0  0
    5.2696  -11.6761   18.1395 O   0  0  0  0  0  0  0  0  0  0  0  0
    3.2363  -13.3198   18.3308 C   0  0  0  0  0  0  0  0  0  0  0  0
    2.2352  -14.4991   17.9414 C   0  0  0  0  0  0  0  0  0  0  0  0
    2.4175  -15.8802   17.9093 C   0  0  0  0  0  0  0  0  0  0  0  0
    1.1273  -16.4569   17.8545 C   0  0  0  0  0  0  0  0  0  0  0  0
    0.1712  -15.5280   17.8265 N   0  0  0  0  0  0  0  0  0  0  0  0
    0.8726  -14.3711   17.7645 N   0  0  0  0  0  0  0  0  0  0  0  0
    5.7179  -10.0331   13.9585 C   0  0  0  0  0  0  0  0  0  0  0  0
    6.4721   -8.1398   14.1125 C   0  0  0  0  0  0  0  0  0  0  0  0
    5.8436   -7.1054   13.4692 O   0  0  0  0  0  0  0  0  0  0  0  0
    4.3162   -3.6196   14.4097 H   0  0  0  0  0  0  0  0  0  0  0  0
    3.3400   -4.5004   13.2246 H   0  0  0  0  0  0  0  0  0  0  0  0
    2.6653   -4.0677   14.7962 H   0  0  0  0  0  0  0  0  0  0  0  0
    3.1223   -6.1398   15.3661 H   0  0  0  0  0  0  0  0  0  0  0  0
    4.5257   -4.5246   16.5403 H   0  0  0  0  0  0  0  0  0  0  0  0
    4.5010   -6.1625   17.0178 H   0  0  0  0  0  0  0  0  0  0  0  0
    5.8808   -5.6358   16.0656 H   0  0  0  0  0  0  0  0  0  0  0  0
    4.1656   -6.5364   12.8308 H   0  0  0  0  0  0  0  0  0  0  0  0
    3.9821   -8.6923   12.9311 H   0  0  0  0  0  0  0  0  0  0  0  0
    3.2686   -8.1493   14.6230 H   0  0  0  0  0  0  0  0  0  0  0  0
    3.7126  -10.5319   13.8936 H   0  0  0  0  0  0  0  0  0  0  0  0
    2.7988  -11.9761   15.6887 H   0  0  0  0  0  0  0  0  0  0  0  0
    2.9306  -12.9052   19.2931 H   0  0  0  0  0  0  0  0  0  0  0  0
    4.0971  -13.9320   18.6625 H   0  0  0  0  0  0  0  0  0  0  0  0
    3.3597  -16.4007   18.0064 H   0  0  0  0  0  0  0  0  0  0  0  0
    0.8545  -17.5039   17.8571 H   0  0  0  0  0  0  0  0  0  0  0  0
    0.3687  -13.4973   17.6551 H   0  0  0  0  0  0  0  0  0  0  0  0
    6.4304  -10.7580   13.9956 H   0  0  0  0  0  0  0  0  0  0  0  0
    5.4861  -10.4443   12.9824 H   0  0  0  0  0  0  0  0  0  0  0  0
    6.8958   -7.6828   15.0357 H   0  0  0  0  0  0  0  0  0  0  0  0
    7.3861   -8.3075   13.6858 H   0  0  0  0  0  0  0  0  0  0  0  0
  1  2  1  0
  2  3  1  0
  2  4  1  0
  4  5  1  0
  5  6  1  0
  6  7  1  0
  7  8  1  0
  8  9  2  0
  8 10  1  0
 10 11  1  0
 11 12  2  0
 12 13  1  0
 13 14  2  0
 14 15  1  0
  6 16  1  0
 16 17  1  0
 17 18  1  0
 18  4  1  0
 15 11  1  0
  1 19  1  0
  1 20  1  0
  1 21  1  0
  2 22  1  0
  3 23  1  0
  3 24  1  0
  3 25  1  0
  4 26  1  0
  5 27  1  0
  5 28  1  0
  6 29  1  0
  7 30  1  0
 10 31  1  0
 10 32  1  0
 12 33  1  0
 13 34  1  0
 15 35  1  0
 16 36  1  0
 16 37  1  0
 17 38  1  0
 17 39  1  0
M  END
>  <Energy>  (532) 
470.24567876585934

>  <compound_id>  (532) 
90260

>  <target_id>  (532) 
1

>  <reference_id>  (532) 
112

>  <inspiration_ids>  (532) 
[112, 81]

>  <energy_score>  (532) 
411.34209574777174

>  <distance_score>  (532) 
15.19998161440041

>  <path>  (532) 
/opt/xchem-fragalysis-2/maxwin/BulkDock/SCRATCH/511016/C90260-P112/C90260-P112.minimised.mol

>  <scratch_subdir>  (532) 
/opt/xchem-fragalysis-2/maxwin/BulkDock/SCRATCH/511016/C90260-P112

>  <fragmenstein_runtime>  (532) 
15.09986162185669

>  <fragmenstein_outcome>  (532) 
too moved

>  <fragmenstein_mode>  (532) 
expansion

>  <fragmenstein_error>  (532) 


$$$$
C90260-P81
     RDKit          3D

 39 40  0  0  0  0  0  0  0  0999 V2000
    1.1404   -5.6424   16.6569 C   0  0  0  0  0  0  0  0  0  0  0  0
    2.6565   -5.4089   16.6327 C   0  0  0  0  0  0  0  0  0  0  0  0
    2.8651   -3.9260   16.2910 C   0  0  0  0  0  0  0  0  0  0  0  0
    3.5551   -6.3428   15.7377 C   0  0  0  0  0  0  0  0  0  0  0  0
    3.0373   -8.0483   15.4018 C   0  0  0  0  0  0  0  0  0  0  0  0
    3.8084   -9.3649   13.9199 C   0  0  0  0  0  0  0  0  0  0  0  0
    2.5677  -10.7304   13.2838 N   0  0  0  0  0  0  0  0  0  0  0  0
    1.9985  -11.0971   11.6920 C   0  0  0  0  0  0  0  0  0  0  0  0
    2.3681  -10.6044   10.6516 O   0  0  0  0  0  0  0  0  0  0  0  0
    0.4845  -12.3834   11.7997 C   0  0  0  0  0  0  0  0  0  0  0  0
    0.0859  -14.2358   11.7556 C   0  0  0  0  0  0  0  0  0  0  0  0
   -0.9797  -15.0256   12.3043 C   0  0  0  0  0  0  0  0  0  0  0  0
   -1.0849  -16.3114   11.7394 C   0  0  0  0  0  0  0  0  0  0  0  0
   -0.1091  -16.4807   10.8905 N   0  0  0  0  0  0  0  0  0  0  0  0
    0.5892  -15.3358   10.9881 N   0  0  0  0  0  0  0  0  0  0  0  0
    4.2715   -7.9882   13.2608 C   0  0  0  0  0  0  0  0  0  0  0  0
    4.5386   -6.5667   13.6479 C   0  0  0  0  0  0  0  0  0  0  0  0
    3.7988   -5.7224   14.5088 O   0  0  0  0  0  0  0  0  0  0  0  0
    0.8762   -6.6216   17.0645 H   0  0  0  0  0  0  0  0  0  0  0  0
    0.6548   -4.9060   17.3090 H   0  0  0  0  0  0  0  0  0  0  0  0
    0.6942   -5.5311   15.6647 H   0  0  0  0  0  0  0  0  0  0  0  0
    2.9930   -5.5675   17.6670 H   0  0  0  0  0  0  0  0  0  0  0  0
    2.3364   -3.6512   15.3711 H   0  0  0  0  0  0  0  0  0  0  0  0
    3.9174   -3.6979   16.1399 H   0  0  0  0  0  0  0  0  0  0  0  0
    2.4912   -3.2844   17.0961 H   0  0  0  0  0  0  0  0  0  0  0  0
    4.4935   -6.2989   16.3127 H   0  0  0  0  0  0  0  0  0  0  0  0
    2.1510   -7.8389   16.0965 H   0  0  0  0  0  0  0  0  0  0  0  0
    2.9906   -8.6232   16.3889 H   0  0  0  0  0  0  0  0  0  0  0  0
    4.6643  -10.0483   14.1148 H   0  0  0  0  0  0  0  0  0  0  0  0
    2.0291  -11.2189   13.9414 H   0  0  0  0  0  0  0  0  0  0  0  0
    0.1715  -12.2802   12.8441 H   0  0  0  0  0  0  0  0  0  0  0  0
   -0.3115  -11.9082   11.2214 H   0  0  0  0  0  0  0  0  0  0  0  0
   -1.7150  -14.8526   13.0635 H   0  0  0  0  0  0  0  0  0  0  0  0
   -1.7973  -17.1029   11.9331 H   0  0  0  0  0  0  0  0  0  0  0  0
    1.3965  -15.3795   10.3840 H   0  0  0  0  0  0  0  0  0  0  0  0
    5.3085   -8.1985   13.4735 H   0  0  0  0  0  0  0  0  0  0  0  0
    3.8455   -7.8658   12.2515 H   0  0  0  0  0  0  0  0  0  0  0  0
    4.6806   -6.0170   12.7040 H   0  0  0  0  0  0  0  0  0  0  0  0
    5.4621   -6.7212   14.1753 H   0  0  0  0  0  0  0  0  0  0  0  0
  1  2  1  0
  2  3  1  0
  2  4  1  0
  4  5  1  0
  5  6  1  0
  6  7  1  0
  7  8  1  0
  8  9  2  0
  8 10  1  0
 10 11  1  0
 11 12  2  0
 12 13  1  0
 13 14  2  0
 14 15  1  0
  6 16  1  0
 16 17  1  0
 17 18  1  0
 18  4  1  0
 15 11  1  0
  1 19  1  0
  1 20  1  0
  1 21  1  0
  2 22  1  0
  3 23  1  0
  3 24  1  0
  3 25  1  0
  4 26  1  0
  5 27  1  0
  5 28  1  0
  6 29  1  0
  7 30  1  0
 10 31  1  0
 10 32  1  0
 12 33  1  0
 13 34  1  0
 15 35  1  0
 16 36  1  0
 16 37  1  0
 17 38  1  0
 17 39  1  0
M  END
>  <Energy>  (533) 
511.87543652186235

>  <compound_id>  (533) 
90260

>  <target_id>  (533) 
1

>  <reference_id>  (533) 
81

>  <inspiration_ids>  (533) 
[112, 81]

>  <energy_score>  (533) 
452.97185350377333

>  <distance_score>  (533) 
14.09855746158416

>  <path>  (533) 
/opt/xchem-fragalysis-2/maxwin/BulkDock/SCRATCH/511016/C90260-P81/C90260-P81.minimised.mol

>  <scratch_subdir>  (533) 
/opt/xchem-fragalysis-2/maxwin/BulkDock/SCRATCH/511016/C90260-P81

>  <fragmenstein_runtime>  (533) 
16.889416456222534

>  <fragmenstein_outcome>  (533) 
too moved

>  <fragmenstein_mode>  (533) 
expansion

>  <fragmenstein_error>  (533) 


$$$$
C90261-P112
     RDKit          3D

 47 48  0  0  0  0  0  0  0  0999 V2000
   10.3454   -0.9497   15.2189 C   0  0  0  0  0  0  0  0  0  0  0  0
    9.2793    0.1323   15.2451 C   0  0  0  0  0  0  0  0  0  0  0  0
    8.0430   -0.3581   15.7651 O   0  0  0  0  0  0  0  0  0  0  0  0
    7.2980   -1.1090   14.8077 C   0  0  0  0  0  0  0  0  0  0  0  0
    5.7261   -1.0845   14.9707 C   0  0  0  0  0  0  0  0  0  0  0  0
    5.1950   -0.3958   15.7977 O   0  0  0  0  0  0  0  0  0  0  0  0
    5.1662   -1.9694   13.9866 N   0  0  0  0  0  0  0  0  0  0  0  0
    3.8030   -2.2328   13.6229 C   0  0  0  0  0  0  0  0  0  0  0  0
    3.0655   -3.3951   14.3661 C   0  0  0  0  0  0  0  0  0  0  0  0
    3.6276   -4.7294   14.0002 N   0  0  0  0  0  0  0  0  0  0  0  0
    4.0875   -5.8553   14.8494 C   0  0  0  0  0  0  0  0  0  0  0  0
    4.1936   -5.9370   16.0426 O   0  0  0  0  0  0  0  0  0  0  0  0
    4.3977   -7.2978   13.7963 C   0  0  0  0  0  0  0  0  0  0  0  0
    4.6523   -9.0988   13.9218 C   0  0  0  0  0  0  0  0  0  0  0  0
    4.4244  -10.5507   14.6415 C   0  0  0  0  0  0  0  0  0  0  0  0
    5.2697  -11.4067   14.0175 C   0  0  0  0  0  0  0  0  0  0  0  0
    5.3191  -10.7600   12.9379 N   0  0  0  0  0  0  0  0  0  0  0  0
    4.1552  -10.0204   13.1687 N   0  0  0  0  0  0  0  0  0  0  0  0
    1.6035   -3.3580   13.8907 C   0  0  0  0  0  0  0  0  0  0  0  0
    0.7814   -2.2829   14.6057 C   0  0  0  0  0  0  0  0  0  0  0  0
    1.5978   -1.3292   15.2701 O   0  0  0  0  0  0  0  0  0  0  0  0
    2.3689   -1.9063   16.3218 C   0  0  0  0  0  0  0  0  0  0  0  0
    3.0163   -3.2124   15.8894 C   0  0  0  0  0  0  0  0  0  0  0  0
   11.2723   -0.5682   14.7815 H   0  0  0  0  0  0  0  0  0  0  0  0
   10.0254   -1.8316   14.6601 H   0  0  0  0  0  0  0  0  0  0  0  0
   10.5614   -1.3008   16.2297 H   0  0  0  0  0  0  0  0  0  0  0  0
    9.6096    0.9323   15.9162 H   0  0  0  0  0  0  0  0  0  0  0  0
    9.1378    0.5872   14.2591 H   0  0  0  0  0  0  0  0  0  0  0  0
    7.4972   -0.7521   13.7956 H   0  0  0  0  0  0  0  0  0  0  0  0
    7.6337   -2.1477   14.8726 H   0  0  0  0  0  0  0  0  0  0  0  0
    5.9063   -2.4439   13.5193 H   0  0  0  0  0  0  0  0  0  0  0  0
    3.8314   -2.4659   12.5506 H   0  0  0  0  0  0  0  0  0  0  0  0
    3.2807   -1.2773   13.7107 H   0  0  0  0  0  0  0  0  0  0  0  0
    3.7448   -4.9797   13.0236 H   0  0  0  0  0  0  0  0  0  0  0  0
    3.5450   -7.6202   14.3574 H   0  0  0  0  0  0  0  0  0  0  0  0
    4.1385   -7.0079   12.7875 H   0  0  0  0  0  0  0  0  0  0  0  0
    3.9139  -10.7800   15.5751 H   0  0  0  0  0  0  0  0  0  0  0  0
    5.7642  -12.3436   14.0048 H   0  0  0  0  0  0  0  0  0  0  0  0
    3.3724   -9.9067   12.5067 H   0  0  0  0  0  0  0  0  0  0  0  0
    1.5548   -3.2030   12.8047 H   0  0  0  0  0  0  0  0  0  0  0  0
    1.1073   -4.3227   14.0562 H   0  0  0  0  0  0  0  0  0  0  0  0
    0.0991   -2.7389   15.3338 H   0  0  0  0  0  0  0  0  0  0  0  0
    0.1580   -1.7500   13.8801 H   0  0  0  0  0  0  0  0  0  0  0  0
    3.1115   -1.1715   16.6332 H   0  0  0  0  0  0  0  0  0  0  0  0
    1.7179   -2.0714   17.1885 H   0  0  0  0  0  0  0  0  0  0  0  0
    2.4267   -4.0304   16.3282 H   0  0  0  0  0  0  0  0  0  0  0  0
    3.9970   -3.3091   16.3387 H   0  0  0  0  0  0  0  0  0  0  0  0
  1  2  1  0
  2  3  1  0
  3  4  1  0
  4  5  1  0
  5  6  2  0
  5  7  1  0
  7  8  1  0
  8  9  1  0
  9 10  1  0
 10 11  1  0
 11 12  2  0
 11 13  1  0
 13 14  1  0
 14 15  2  0
 15 16  1  0
 16 17  2  0
 17 18  1  0
  9 19  1  0
 19 20  1  0
 20 21  1  0
 21 22  1  0
 22 23  1  0
 23  9  1  0
 18 14  1  0
  1 24  1  0
  1 25  1  0
  1 26  1  0
  2 27  1  0
  2 28  1  0
  4 29  1  0
  4 30  1  0
  7 31  1  0
  8 32  1  0
  8 33  1  0
 10 34  1  0
 13 35  1  0
 13 36  1  0
 15 37  1  0
 16 38  1  0
 18 39  1  0
 19 40  1  0
 19 41  1  0
 20 42  1  0
 20 43  1  0
 22 44  1  0
 22 45  1  0
 23 46  1  0
 23 47  1  0
M  END
>  <Energy>  (534) 
316.35520765571613

>  <compound_id>  (534) 
90261

>  <target_id>  (534) 
1

>  <reference_id>  (534) 
112

>  <inspiration_ids>  (534) 
[112, 81]

>  <energy_score>  (534) 
216.91250140650763

>  <distance_score>  (534) 
18.536734156570628

>  <path>  (534) 
/opt/xchem-fragalysis-2/maxwin/BulkDock/SCRATCH/511016/C90261-P112/C90261-P112.minimised.mol

>  <scratch_subdir>  (534) 
/opt/xchem-fragalysis-2/maxwin/BulkDock/SCRATCH/511016/C90261-P112

>  <fragmenstein_runtime>  (534) 
33.48651337623596

>  <fragmenstein_outcome>  (534) 
too moved

>  <fragmenstein_mode>  (534) 
expansion

>  <fragmenstein_error>  (534) 


$$$$
C90261-P81
     RDKit          3D

 47 48  0  0  0  0  0  0  0  0999 V2000
   12.9766   -5.6795   16.3666 C   0  0  0  0  0  0  0  0  0  0  0  0
   12.0437   -7.0423   15.9859 C   0  0  0  0  0  0  0  0  0  0  0  0
   12.0096   -8.9275   15.9434 O   0  0  0  0  0  0  0  0  0  0  0  0
   10.6636  -10.0701   16.2845 C   0  0  0  0  0  0  0  0  0  0  0  0
    8.7875   -9.9184   16.3975 C   0  0  0  0  0  0  0  0  0  0  0  0
    8.3521   -9.4280   15.3660 O   0  0  0  0  0  0  0  0  0  0  0  0
    7.9127  -10.3187   17.8532 N   0  0  0  0  0  0  0  0  0  0  0  0
    6.0547  -10.0097   18.3528 C   0  0  0  0  0  0  0  0  0  0  0  0
    4.0906   -9.9826   17.3480 C   0  0  0  0  0  0  0  0  0  0  0  0
    3.5155  -10.9940   15.6564 N   0  0  0  0  0  0  0  0  0  0  0  0
    2.0136  -12.3447   15.3210 C   0  0  0  0  0  0  0  0  0  0  0  0
    1.4203  -12.7355   16.2775 O   0  0  0  0  0  0  0  0  0  0  0  0
    1.0485  -13.0587   13.6091 C   0  0  0  0  0  0  0  0  0  0  0  0
   -0.1908  -14.3678   12.8605 C   0  0  0  0  0  0  0  0  0  0  0  0
   -1.5475  -15.0225   12.9228 C   0  0  0  0  0  0  0  0  0  0  0  0
   -1.7350  -16.0236   11.9717 C   0  0  0  0  0  0  0  0  0  0  0  0
   -0.6538  -16.0979   11.2415 N   0  0  0  0  0  0  0  0  0  0  0  0
    0.1854  -15.1838   11.7623 N   0  0  0  0  0  0  0  0  0  0  0  0
    2.6177   -8.8616   17.8094 C   0  0  0  0  0  0  0  0  0  0  0  0
    2.3180   -8.1542   19.1846 C   0  0  0  0  0  0  0  0  0  0  0  0
    3.1674   -8.6095   20.2147 O   0  0  0  0  0  0  0  0  0  0  0  0
    4.4729   -8.1607   19.9705 C   0  0  0  0  0  0  0  0  0  0  0  0
    4.7137   -8.3026   18.4433 C   0  0  0  0  0  0  0  0  0  0  0  0
   12.3568   -4.8019   16.1111 H   0  0  0  0  0  0  0  0  0  0  0  0
   13.9043   -5.5334   15.8190 H   0  0  0  0  0  0  0  0  0  0  0  0
   13.1887   -5.4674   17.4222 H   0  0  0  0  0  0  0  0  0  0  0  0
   11.1791   -6.6413   16.4579 H   0  0  0  0  0  0  0  0  0  0  0  0
   11.2923   -6.7025   15.2700 H   0  0  0  0  0  0  0  0  0  0  0  0
   11.0326  -10.6742   17.1225 H   0  0  0  0  0  0  0  0  0  0  0  0
   10.7902  -10.7110   15.4025 H   0  0  0  0  0  0  0  0  0  0  0  0
    8.5328  -10.7872   18.5049 H   0  0  0  0  0  0  0  0  0  0  0  0
    6.0600  -10.9837   18.9148 H   0  0  0  0  0  0  0  0  0  0  0  0
    6.2618   -9.3788   19.2205 H   0  0  0  0  0  0  0  0  0  0  0  0
    3.9966  -10.8069   14.7728 H   0  0  0  0  0  0  0  0  0  0  0  0
    0.5369  -12.2659   13.0619 H   0  0  0  0  0  0  0  0  0  0  0  0
    1.5427  -13.8890   13.1322 H   0  0  0  0  0  0  0  0  0  0  0  0
   -2.3243  -14.8293   13.6588 H   0  0  0  0  0  0  0  0  0  0  0  0
   -2.5772  -16.6789   11.7927 H   0  0  0  0  0  0  0  0  0  0  0  0
    1.0497  -15.2032   11.2779 H   0  0  0  0  0  0  0  0  0  0  0  0
    2.5507   -8.0320   17.0816 H   0  0  0  0  0  0  0  0  0  0  0  0
    1.7075   -9.3672   17.6576 H   0  0  0  0  0  0  0  0  0  0  0  0
    1.2810   -8.3335   19.4924 H   0  0  0  0  0  0  0  0  0  0  0  0
    2.3753   -7.0599   19.0918 H   0  0  0  0  0  0  0  0  0  0  0  0
    4.5625   -7.1094   20.2721 H   0  0  0  0  0  0  0  0  0  0  0  0
    5.1482   -8.7253   20.6170 H   0  0  0  0  0  0  0  0  0  0  0  0
    4.2149   -7.3395   18.1229 H   0  0  0  0  0  0  0  0  0  0  0  0
    5.7291   -7.9294   18.2031 H   0  0  0  0  0  0  0  0  0  0  0  0
  1  2  1  0
  2  3  1  0
  3  4  1  0
  4  5  1  0
  5  6  2  0
  5  7  1  0
  7  8  1  0
  8  9  1  0
  9 10  1  0
 10 11  1  0
 11 12  2  0
 11 13  1  0
 13 14  1  0
 14 15  2  0
 15 16  1  0
 16 17  2  0
 17 18  1  0
  9 19  1  0
 19 20  1  0
 20 21  1  0
 21 22  1  0
 22 23  1  0
 23  9  1  0
 18 14  1  0
  1 24  1  0
  1 25  1  0
  1 26  1  0
  2 27  1  0
  2 28  1  0
  4 29  1  0
  4 30  1  0
  7 31  1  0
  8 32  1  0
  8 33  1  0
 10 34  1  0
 13 35  1  0
 13 36  1  0
 15 37  1  0
 16 38  1  0
 18 39  1  0
 19 40  1  0
 19 41  1  0
 20 42  1  0
 20 43  1  0
 22 44  1  0
 22 45  1  0
 23 46  1  0
 23 47  1  0
M  END
>  <Energy>  (535) 
1311.3368272168627

>  <compound_id>  (535) 
90261

>  <target_id>  (535) 
1

>  <reference_id>  (535) 
81

>  <inspiration_ids>  (535) 
[112, 81]

>  <energy_score>  (535) 
1211.8941209676573

>  <distance_score>  (535) 
14.350661888848094

>  <path>  (535) 
/opt/xchem-fragalysis-2/maxwin/BulkDock/SCRATCH/511016/C90261-P81/C90261-P81.minimised.mol

>  <scratch_subdir>  (535) 
/opt/xchem-fragalysis-2/maxwin/BulkDock/SCRATCH/511016/C90261-P81

>  <fragmenstein_runtime>  (535) 
19.139052867889404

>  <fragmenstein_outcome>  (535) 
too moved

>  <fragmenstein_mode>  (535) 
expansion

>  <fragmenstein_error>  (535) 


$$$$
C90262-P112
     RDKit          3D

 52 53  0  0  0  0  0  0  0  0999 V2000
   13.5720   -5.0089   18.2951 C   0  0  0  0  0  0  0  0  0  0  0  0
   12.6556   -5.3681   17.0549 C   0  0  0  0  0  0  0  0  0  0  0  0
   12.4084   -6.9589   15.9032 C   0  0  0  0  0  0  0  0  0  0  0  0
   11.6215   -5.4436   15.1653 C   0  0  0  0  0  0  0  0  0  0  0  0
   13.9575   -6.2742   15.2185 C   0  0  0  0  0  0  0  0  0  0  0  0
   11.5214   -8.9464   16.2240 C   0  0  0  0  0  0  0  0  0  0  0  0
   12.2448   -9.8866   16.4684 O   0  0  0  0  0  0  0  0  0  0  0  0
    9.6448   -9.1316   16.3486 N   0  0  0  0  0  0  0  0  0  0  0  0
    8.5104  -10.5876   17.0297 C   0  0  0  0  0  0  0  0  0  0  0  0
    7.0058  -10.6670   18.6197 C   0  0  0  0  0  0  0  0  0  0  0  0
    5.5514  -12.1032   18.8093 N   0  0  0  0  0  0  0  0  0  0  0  0
    3.8305  -12.3482   17.9085 C   0  0  0  0  0  0  0  0  0  0  0  0
    3.4776  -11.4831   17.1227 O   0  0  0  0  0  0  0  0  0  0  0  0
    2.4533  -13.9291   17.8711 C   0  0  0  0  0  0  0  0  0  0  0  0
    0.4219  -13.8379   17.5871 C   0  0  0  0  0  0  0  0  0  0  0  0
   -0.9805  -12.9207   17.9097 C   0  0  0  0  0  0  0  0  0  0  0  0
   -2.2229  -13.6411   17.8130 C   0  0  0  0  0  0  0  0  0  0  0  0
   -1.8645  -14.7082   17.1554 N   0  0  0  0  0  0  0  0  0  0  0  0
   -0.7267  -14.1405   16.6664 N   0  0  0  0  0  0  0  0  0  0  0  0
    6.4241   -9.7816   20.0517 C   0  0  0  0  0  0  0  0  0  0  0  0
    7.3267   -8.8346   20.8599 C   0  0  0  0  0  0  0  0  0  0  0  0
    8.1625   -9.5606   21.7440 O   0  0  0  0  0  0  0  0  0  0  0  0
    8.3663  -10.8820   21.2746 C   0  0  0  0  0  0  0  0  0  0  0  0
    8.4487  -10.9133   19.7557 C   0  0  0  0  0  0  0  0  0  0  0  0
   14.6375   -4.9593   18.0450 H   0  0  0  0  0  0  0  0  0  0  0  0
   13.4265   -5.6129   19.1854 H   0  0  0  0  0  0  0  0  0  0  0  0
   13.3131   -3.9865   18.6065 H   0  0  0  0  0  0  0  0  0  0  0  0
   13.0501   -4.5299   16.4547 H   0  0  0  0  0  0  0  0  0  0  0  0
   11.6816   -4.9117   17.3347 H   0  0  0  0  0  0  0  0  0  0  0  0
   11.2595   -5.5062   14.1949 H   0  0  0  0  0  0  0  0  0  0  0  0
   10.9865   -4.8132   15.7531 H   0  0  0  0  0  0  0  0  0  0  0  0
   12.3432   -4.6613   14.8771 H   0  0  0  0  0  0  0  0  0  0  0  0
   14.7628   -6.9681   15.0134 H   0  0  0  0  0  0  0  0  0  0  0  0
   14.4643   -5.4875   15.8210 H   0  0  0  0  0  0  0  0  0  0  0  0
   13.8668   -5.4864   14.4985 H   0  0  0  0  0  0  0  0  0  0  0  0
    9.2239   -8.3012   16.0254 H   0  0  0  0  0  0  0  0  0  0  0  0
    9.3465  -10.8199   17.7036 H   0  0  0  0  0  0  0  0  0  0  0  0
    8.7395  -11.4736   16.4346 H   0  0  0  0  0  0  0  0  0  0  0  0
    5.6687  -12.8478   19.4862 H   0  0  0  0  0  0  0  0  0  0  0  0
    2.6434  -14.5668   18.7600 H   0  0  0  0  0  0  0  0  0  0  0  0
    2.6728  -14.7321   17.1476 H   0  0  0  0  0  0  0  0  0  0  0  0
   -1.0322  -11.9565   18.4145 H   0  0  0  0  0  0  0  0  0  0  0  0
   -3.2230  -13.4379   18.1682 H   0  0  0  0  0  0  0  0  0  0  0  0
   -0.6472  -14.0767   15.6633 H   0  0  0  0  0  0  0  0  0  0  0  0
    5.5508   -9.1776   19.7896 H   0  0  0  0  0  0  0  0  0  0  0  0
    6.0405  -10.5507   20.7340 H   0  0  0  0  0  0  0  0  0  0  0  0
    7.9579   -8.1850   20.2593 H   0  0  0  0  0  0  0  0  0  0  0  0
    6.7048   -8.1809   21.4814 H   0  0  0  0  0  0  0  0  0  0  0  0
    9.3199  -11.2150   21.7002 H   0  0  0  0  0  0  0  0  0  0  0  0
    7.6044  -11.5628   21.6698 H   0  0  0  0  0  0  0  0  0  0  0  0
    9.0829  -10.0501   19.5015 H   0  0  0  0  0  0  0  0  0  0  0  0
    9.0831  -11.7662   19.5413 H   0  0  0  0  0  0  0  0  0  0  0  0
  1  2  1  0
  2  3  1  0
  3  4  1  0
  3  5  1  0
  3  6  1  0
  6  7  2  0
  6  8  1  0
  8  9  1  0
  9 10  1  0
 10 11  1  0
 11 12  1  0
 12 13  2  0
 12 14  1  0
 14 15  1  0
 15 16  2  0
 16 17  1  0
 17 18  2  0
 18 19  1  0
 10 20  1  0
 20 21  1  0
 21 22  1  0
 22 23  1  0
 23 24  1  0
 24 10  1  0
 19 15  1  0
  1 25  1  0
  1 26  1  0
  1 27  1  0
  2 28  1  0
  2 29  1  0
  4 30  1  0
  4 31  1  0
  4 32  1  0
  5 33  1  0
  5 34  1  0
  5 35  1  0
  8 36  1  0
  9 37  1  0
  9 38  1  0
 11 39  1  0
 14 40  1  0
 14 41  1  0
 16 42  1  0
 17 43  1  0
 19 44  1  0
 20 45  1  0
 20 46  1  0
 21 47  1  0
 21 48  1  0
 23 49  1  0
 23 50  1  0
 24 51  1  0
 24 52  1  0
M  END
>  <Energy>  (536) 
1297.6196846709802

>  <compound_id>  (536) 
90262

>  <target_id>  (536) 
1

>  <reference_id>  (536) 
112

>  <inspiration_ids>  (536) 
[112, 81]

>  <energy_score>  (536) 
1211.543765051461

>  <distance_score>  (536) 
14.79320712565191

>  <path>  (536) 
/opt/xchem-fragalysis-2/maxwin/BulkDock/SCRATCH/511016/C90262-P112/C90262-P112.minimised.mol

>  <scratch_subdir>  (536) 
/opt/xchem-fragalysis-2/maxwin/BulkDock/SCRATCH/511016/C90262-P112

>  <fragmenstein_runtime>  (536) 
16.104171752929688

>  <fragmenstein_outcome>  (536) 
too moved

>  <fragmenstein_mode>  (536) 
expansion

>  <fragmenstein_error>  (536) 


$$$$
C90262-P81
     RDKit          3D

 52 53  0  0  0  0  0  0  0  0999 V2000
   12.6320   -1.6218   15.2133 C   0  0  0  0  0  0  0  0  0  0  0  0
   12.2782   -3.0140   14.6457 C   0  0  0  0  0  0  0  0  0  0  0  0
   10.9431   -3.8302   15.2371 C   0  0  0  0  0  0  0  0  0  0  0  0
   11.6261   -4.3082   16.5095 C   0  0  0  0  0  0  0  0  0  0  0  0
    9.9995   -2.6005   15.1868 C   0  0  0  0  0  0  0  0  0  0  0  0
   10.3866   -4.8277   14.0170 C   0  0  0  0  0  0  0  0  0  0  0  0
   11.1467   -4.7554   13.0406 O   0  0  0  0  0  0  0  0  0  0  0  0
    8.7281   -5.8154   14.0085 N   0  0  0  0  0  0  0  0  0  0  0  0
    7.7099   -6.8569   12.4202 C   0  0  0  0  0  0  0  0  0  0  0  0
    6.4538   -6.5653   10.7412 C   0  0  0  0  0  0  0  0  0  0  0  0
    5.3760   -7.4934    9.7561 N   0  0  0  0  0  0  0  0  0  0  0  0
    3.8925   -7.8321    9.9373 C   0  0  0  0  0  0  0  0  0  0  0  0
    3.1021   -7.4634   10.7724 O   0  0  0  0  0  0  0  0  0  0  0  0
    3.3505   -8.8990    8.8712 C   0  0  0  0  0  0  0  0  0  0  0  0
    2.3738  -10.0432    9.3591 C   0  0  0  0  0  0  0  0  0  0  0  0
    2.2723  -11.3884    9.0040 C   0  0  0  0  0  0  0  0  0  0  0  0
    1.1229  -11.8983    9.6530 C   0  0  0  0  0  0  0  0  0  0  0  0
    0.5120  -10.9615   10.3765 N   0  0  0  0  0  0  0  0  0  0  0  0
    1.3033   -9.8669   10.2135 N   0  0  0  0  0  0  0  0  0  0  0  0
    7.3598   -6.1098    9.5263 C   0  0  0  0  0  0  0  0  0  0  0  0
    6.7694   -5.0113    8.6620 C   0  0  0  0  0  0  0  0  0  0  0  0
    6.6142   -3.8697    9.4942 O   0  0  0  0  0  0  0  0  0  0  0  0
    5.4382   -3.9601   10.2761 C   0  0  0  0  0  0  0  0  0  0  0  0
    5.2234   -5.3356   10.9404 C   0  0  0  0  0  0  0  0  0  0  0  0
   11.9874   -0.8330   14.8154 H   0  0  0  0  0  0  0  0  0  0  0  0
   13.6550   -1.3629   14.9171 H   0  0  0  0  0  0  0  0  0  0  0  0
   12.5885   -1.5861   16.3043 H   0  0  0  0  0  0  0  0  0  0  0  0
   13.1532   -3.6031   14.8986 H   0  0  0  0  0  0  0  0  0  0  0  0
   12.2400   -2.9078   13.5565 H   0  0  0  0  0  0  0  0  0  0  0  0
   12.1225   -3.5000   17.0554 H   0  0  0  0  0  0  0  0  0  0  0  0
   12.4026   -5.0499   16.3033 H   0  0  0  0  0  0  0  0  0  0  0  0
   10.9954   -4.7569   17.2355 H   0  0  0  0  0  0  0  0  0  0  0  0
   10.0953   -1.9519   16.0572 H   0  0  0  0  0  0  0  0  0  0  0  0
    8.9539   -2.8532   14.9787 H   0  0  0  0  0  0  0  0  0  0  0  0
   10.2556   -1.9315   14.3709 H   0  0  0  0  0  0  0  0  0  0  0  0
    8.3195   -5.8020   14.9594 H   0  0  0  0  0  0  0  0  0  0  0  0
    8.3065   -7.6297   11.9055 H   0  0  0  0  0  0  0  0  0  0  0  0
    6.9514   -7.4958   12.9305 H   0  0  0  0  0  0  0  0  0  0  0  0
    5.7142   -7.9153    8.8966 H   0  0  0  0  0  0  0  0  0  0  0  0
    2.7970   -8.3145    8.1246 H   0  0  0  0  0  0  0  0  0  0  0  0
    4.1838   -9.3704    8.3429 H   0  0  0  0  0  0  0  0  0  0  0  0
    2.9319  -11.9238    8.3358 H   0  0  0  0  0  0  0  0  0  0  0  0
    0.7110  -12.8983    9.6166 H   0  0  0  0  0  0  0  0  0  0  0  0
    1.0932   -9.0303   10.7528 H   0  0  0  0  0  0  0  0  0  0  0  0
    7.6744   -6.9661    8.9203 H   0  0  0  0  0  0  0  0  0  0  0  0
    8.2368   -5.6344    9.8772 H   0  0  0  0  0  0  0  0  0  0  0  0
    5.8280   -5.2917    8.1762 H   0  0  0  0  0  0  0  0  0  0  0  0
    7.4802   -4.7464    7.8719 H   0  0  0  0  0  0  0  0  0  0  0  0
    4.5857   -3.7336    9.6215 H   0  0  0  0  0  0  0  0  0  0  0  0
    5.4398   -3.1526   11.0137 H   0  0  0  0  0  0  0  0  0  0  0  0
    4.8977   -5.2709   11.9838 H   0  0  0  0  0  0  0  0  0  0  0  0
    4.2996   -5.6376   10.4566 H   0  0  0  0  0  0  0  0  0  0  0  0
  1  2  1  0
  2  3  1  0
  3  4  1  0
  3  5  1  0
  3  6  1  0
  6  7  2  0
  6  8  1  0
  8  9  1  0
  9 10  1  0
 10 11  1  0
 11 12  1  0
 12 13  2  0
 12 14  1  0
 14 15  1  0
 15 16  2  0
 16 17  1  0
 17 18  2  0
 18 19  1  0
 10 20  1  0
 20 21  1  0
 21 22  1  0
 22 23  1  0
 23 24  1  0
 24 10  1  0
 19 15  1  0
  1 25  1  0
  1 26  1  0
  1 27  1  0
  2 28  1  0
  2 29  1  0
  4 30  1  0
  4 31  1  0
  4 32  1  0
  5 33  1  0
  5 34  1  0
  5 35  1  0
  8 36  1  0
  9 37  1  0
  9 38  1  0
 11 39  1  0
 14 40  1  0
 14 41  1  0
 16 42  1  0
 17 43  1  0
 19 44  1  0
 20 45  1  0
 20 46  1  0
 21 47  1  0
 21 48  1  0
 23 49  1  0
 23 50  1  0
 24 51  1  0
 24 52  1  0
M  END
>  <Energy>  (537) 
533.31173695534358

>  <compound_id>  (537) 
90262

>  <target_id>  (537) 
1

>  <reference_id>  (537) 
81

>  <inspiration_ids>  (537) 
[112, 81]

>  <energy_score>  (537) 
447.2358173358161

>  <distance_score>  (537) 
16.804843894636353

>  <path>  (537) 
/opt/xchem-fragalysis-2/maxwin/BulkDock/SCRATCH/511016/C90262-P81/C90262-P81.minimised.mol

>  <scratch_subdir>  (537) 
/opt/xchem-fragalysis-2/maxwin/BulkDock/SCRATCH/511016/C90262-P81

>  <fragmenstein_runtime>  (537) 
15.528112411499023

>  <fragmenstein_outcome>  (537) 
too moved

>  <fragmenstein_mode>  (537) 
expansion

>  <fragmenstein_error>  (537) 


$$$$
C90263-P112
     RDKit          3D

 44 45  0  0  0  0  0  0  0  0999 V2000
   -0.3119  -19.2483   18.7672 O   0  0  0  0  0  0  0  0  0  0  0  0
   -0.5884  -18.2212   18.2157 C   0  0  0  0  0  0  0  0  0  0  0  0
   -1.9020  -18.1167   17.3687 C   0  0  0  0  0  0  0  0  0  0  0  0
   -2.8877  -19.2612   17.5403 C   0  0  0  0  0  0  0  0  0  0  0  0
   -2.7517  -20.6361   17.4835 C   0  0  0  0  0  0  0  0  0  0  0  0
   -4.0276  -21.1556   17.7729 C   0  0  0  0  0  0  0  0  0  0  0  0
   -4.9393  -20.1930   17.9329 N   0  0  0  0  0  0  0  0  0  0  0  0
   -4.2284  -19.0615   17.7768 N   0  0  0  0  0  0  0  0  0  0  0  0
    0.1361  -16.9523   18.1475 N   0  0  0  0  0  0  0  0  0  0  0  0
    1.4012  -16.5035   18.8240 C   0  0  0  0  0  0  0  0  0  0  0  0
    1.1995  -16.7141   20.3603 C   0  0  0  0  0  0  0  0  0  0  0  0
    2.3457  -16.4484   21.1921 N   0  0  0  0  0  0  0  0  0  0  0  0
    2.5283  -15.5281   22.2743 C   0  0  0  0  0  0  0  0  0  0  0  0
    1.8009  -14.6866   22.7159 O   0  0  0  0  0  0  0  0  0  0  0  0
    3.9649  -15.7043   22.8185 C   0  0  0  0  0  0  0  0  0  0  0  0
    4.4339  -17.0501   22.6529 O   0  0  0  0  0  0  0  0  0  0  0  0
    4.0145  -15.3069   24.2858 C   0  0  0  0  0  0  0  0  0  0  0  0
    5.3056  -15.4396   24.7142 F   0  0  0  0  0  0  0  0  0  0  0  0
    2.5882  -17.3491   18.2974 C   0  0  0  0  0  0  0  0  0  0  0  0
    3.8071  -16.5088   17.9018 C   0  0  0  0  0  0  0  0  0  0  0  0
    4.0913  -15.4837   18.8502 O   0  0  0  0  0  0  0  0  0  0  0  0
    3.0569  -14.5059   18.9362 C   0  0  0  0  0  0  0  0  0  0  0  0
    1.6741  -15.0071   18.4953 C   0  0  0  0  0  0  0  0  0  0  0  0
   -2.4021  -17.1763   17.6312 H   0  0  0  0  0  0  0  0  0  0  0  0
   -1.6091  -18.0659   16.3134 H   0  0  0  0  0  0  0  0  0  0  0  0
   -1.8399  -21.1912   17.3087 H   0  0  0  0  0  0  0  0  0  0  0  0
   -4.3212  -22.1937   17.8621 H   0  0  0  0  0  0  0  0  0  0  0  0
   -4.7197  -18.1796   17.8700 H   0  0  0  0  0  0  0  0  0  0  0  0
   -0.4349  -16.2698   17.6608 H   0  0  0  0  0  0  0  0  0  0  0  0
    0.9192  -17.7522   20.5696 H   0  0  0  0  0  0  0  0  0  0  0  0
    0.3728  -16.0861   20.7139 H   0  0  0  0  0  0  0  0  0  0  0  0
    3.1492  -17.0797   21.1533 H   0  0  0  0  0  0  0  0  0  0  0  0
    4.6292  -15.0592   22.2332 H   0  0  0  0  0  0  0  0  0  0  0  0
    5.2144  -17.1338   23.2350 H   0  0  0  0  0  0  0  0  0  0  0  0
    3.3995  -15.9686   24.9033 H   0  0  0  0  0  0  0  0  0  0  0  0
    3.7085  -14.2700   24.4508 H   0  0  0  0  0  0  0  0  0  0  0  0
    2.8933  -18.0802   19.0561 H   0  0  0  0  0  0  0  0  0  0  0  0
    2.2948  -17.9428   17.4222 H   0  0  0  0  0  0  0  0  0  0  0  0
    4.6884  -17.1554   17.8348 H   0  0  0  0  0  0  0  0  0  0  0  0
    3.6673  -16.0649   16.9112 H   0  0  0  0  0  0  0  0  0  0  0  0
    3.0212  -14.1621   19.9732 H   0  0  0  0  0  0  0  0  0  0  0  0
    3.3532  -13.6278   18.3658 H   0  0  0  0  0  0  0  0  0  0  0  0
    0.8904  -14.3702   18.9221 H   0  0  0  0  0  0  0  0  0  0  0  0
    1.5916  -14.8829   17.4076 H   0  0  0  0  0  0  0  0  0  0  0  0
  1  2  2  0
  2  3  1  0
  3  4  1  0
  4  5  2  0
  5  6  1  0
  6  7  2  0
  7  8  1  0
  2  9  1  0
  9 10  1  0
 10 11  1  0
 11 12  1  0
 12 13  1  0
 13 14  2  0
 13 15  1  0
 15 16  1  0
 15 17  1  0
 17 18  1  0
 10 19  1  0
 19 20  1  0
 20 21  1  0
 21 22  1  0
 22 23  1  0
  8  4  1  0
 23 10  1  0
  3 24  1  0
  3 25  1  0
  5 26  1  0
  6 27  1  0
  8 28  1  0
  9 29  1  0
 11 30  1  0
 11 31  1  0
 12 32  1  0
 15 33  1  0
 16 34  1  0
 17 35  1  0
 17 36  1  0
 19 37  1  0
 19 38  1  0
 20 39  1  0
 20 40  1  0
 22 41  1  0
 22 42  1  0
 23 43  1  0
 23 44  1  0
M  END
>  <Energy>  (538) 
74.943919316167637

>  <compound_id>  (538) 
90263

>  <target_id>  (538) 
1

>  <reference_id>  (538) 
112

>  <inspiration_ids>  (538) 
[112, 81]

>  <energy_score>  (538) 
-24.70380412931135

>  <distance_score>  (538) 
14.162278795242377

>  <path>  (538) 
/opt/xchem-fragalysis-2/maxwin/BulkDock/SCRATCH/511016/C90263-P112/C90263-P112.minimised.mol

>  <scratch_subdir>  (538) 
/opt/xchem-fragalysis-2/maxwin/BulkDock/SCRATCH/511016/C90263-P112

>  <fragmenstein_runtime>  (538) 
20.96794581413269

>  <fragmenstein_outcome>  (538) 
too moved

>  <fragmenstein_mode>  (538) 
expansion

>  <fragmenstein_error>  (538) 


$$$$
C90263-P81
     RDKit          3D

 44 45  0  0  0  0  0  0  0  0999 V2000
    3.8523   -7.4697   10.5886 O   0  0  0  0  0  0  0  0  0  0  0  0
    3.4847   -8.2044   11.4867 C   0  0  0  0  0  0  0  0  0  0  0  0
    1.9823   -9.5616   11.0541 C   0  0  0  0  0  0  0  0  0  0  0  0
    1.0809  -11.0380   11.6870 C   0  0  0  0  0  0  0  0  0  0  0  0
    0.7047  -12.3273   11.2084 C   0  0  0  0  0  0  0  0  0  0  0  0
    0.2557  -13.2835   12.1413 C   0  0  0  0  0  0  0  0  0  0  0  0
   -0.2143  -12.4486   13.0214 N   0  0  0  0  0  0  0  0  0  0  0  0
   -0.2313  -11.2357   12.2542 N   0  0  0  0  0  0  0  0  0  0  0  0
    4.1525   -8.3444   12.9704 N   0  0  0  0  0  0  0  0  0  0  0  0
    5.5134   -7.6964   13.6040 C   0  0  0  0  0  0  0  0  0  0  0  0
    7.3586   -7.3357   12.9926 C   0  0  0  0  0  0  0  0  0  0  0  0
    8.6585   -6.3707   14.3642 N   0  0  0  0  0  0  0  0  0  0  0  0
    8.9896   -4.4899   14.7446 C   0  0  0  0  0  0  0  0  0  0  0  0
    8.3878   -3.4293   14.3123 O   0  0  0  0  0  0  0  0  0  0  0  0
   10.4688   -3.9983   15.7085 C   0  0  0  0  0  0  0  0  0  0  0  0
   11.0725   -3.4257   14.3767 O   0  0  0  0  0  0  0  0  0  0  0  0
   11.7432   -4.6371   16.2201 C   0  0  0  0  0  0  0  0  0  0  0  0
   12.0130   -4.2365   17.4854 F   0  0  0  0  0  0  0  0  0  0  0  0
    6.6522   -7.6860   14.6511 C   0  0  0  0  0  0  0  0  0  0  0  0
    8.0468   -8.7735   14.6021 C   0  0  0  0  0  0  0  0  0  0  0  0
    7.5873   -9.4607   13.5172 O   0  0  0  0  0  0  0  0  0  0  0  0
    6.3503  -10.4221   13.9002 C   0  0  0  0  0  0  0  0  0  0  0  0
    5.1358   -9.7008   13.9396 C   0  0  0  0  0  0  0  0  0  0  0  0
    2.5995  -10.2122   10.3954 H   0  0  0  0  0  0  0  0  0  0  0  0
    1.1441   -9.0880   10.5505 H   0  0  0  0  0  0  0  0  0  0  0  0
   -0.1925  -12.2578   10.6302 H   0  0  0  0  0  0  0  0  0  0  0  0
    0.0859  -14.3505   12.1327 H   0  0  0  0  0  0  0  0  0  0  0  0
   -0.9608  -10.5795   12.5098 H   0  0  0  0  0  0  0  0  0  0  0  0
    3.5798   -8.9658   13.5281 H   0  0  0  0  0  0  0  0  0  0  0  0
    7.9407   -8.0557   12.4226 H   0  0  0  0  0  0  0  0  0  0  0  0
    7.2273   -6.8710   12.0446 H   0  0  0  0  0  0  0  0  0  0  0  0
    9.2877   -6.9804   14.9711 H   0  0  0  0  0  0  0  0  0  0  0  0
   10.4344   -2.9890   16.1261 H   0  0  0  0  0  0  0  0  0  0  0  0
   10.3985   -2.7932   14.0223 H   0  0  0  0  0  0  0  0  0  0  0  0
   11.7111   -5.7162   16.1941 H   0  0  0  0  0  0  0  0  0  0  0  0
   12.6287   -4.3078   15.6703 H   0  0  0  0  0  0  0  0  0  0  0  0
    6.4445   -6.8917   15.4122 H   0  0  0  0  0  0  0  0  0  0  0  0
    5.9853   -8.3643   14.6331 H   0  0  0  0  0  0  0  0  0  0  0  0
    8.2992   -9.5560   15.3516 H   0  0  0  0  0  0  0  0  0  0  0  0
    9.0430   -8.4408   14.5607 H   0  0  0  0  0  0  0  0  0  0  0  0
    6.0431  -11.3980   13.4241 H   0  0  0  0  0  0  0  0  0  0  0  0
    7.2915  -10.5341   14.3843 H   0  0  0  0  0  0  0  0  0  0  0  0
    4.5710  -10.3405   14.6337 H   0  0  0  0  0  0  0  0  0  0  0  0
    4.5333  -10.2866   13.2073 H   0  0  0  0  0  0  0  0  0  0  0  0
  1  2  2  0
  2  3  1  0
  3  4  1  0
  4  5  2  0
  5  6  1  0
  6  7  2  0
  7  8  1  0
  2  9  1  0
  9 10  1  0
 10 11  1  0
 11 12  1  0
 12 13  1  0
 13 14  2  0
 13 15  1  0
 15 16  1  0
 15 17  1  0
 17 18  1  0
 10 19  1  0
 19 20  1  0
 20 21  1  0
 21 22  1  0
 22 23  1  0
  8  4  1  0
 23 10  1  0
  3 24  1  0
  3 25  1  0
  5 26  1  0
  6 27  1  0
  8 28  1  0
  9 29  1  0
 11 30  1  0
 11 31  1  0
 12 32  1  0
 15 33  1  0
 16 34  1  0
 17 35  1  0
 17 36  1  0
 19 37  1  0
 19 38  1  0
 20 39  1  0
 20 40  1  0
 22 41  1  0
 22 42  1  0
 23 43  1  0
 23 44  1  0
M  END
>  <Energy>  (539) 
1245.8047851520212

>  <compound_id>  (539) 
90263

>  <target_id>  (539) 
1

>  <reference_id>  (539) 
81

>  <inspiration_ids>  (539) 
[112, 81]

>  <energy_score>  (539) 
1146.1570617065486

>  <distance_score>  (539) 
15.57992812769595

>  <path>  (539) 
/opt/xchem-fragalysis-2/maxwin/BulkDock/SCRATCH/511016/C90263-P81/C90263-P81.minimised.mol

>  <scratch_subdir>  (539) 
/opt/xchem-fragalysis-2/maxwin/BulkDock/SCRATCH/511016/C90263-P81

>  <fragmenstein_runtime>  (539) 
12.333875179290771

>  <fragmenstein_outcome>  (539) 
too moved

>  <fragmenstein_mode>  (539) 
expansion

>  <fragmenstein_error>  (539) 


$$$$
C90264-P112
     RDKit          3D

 43 44  0  0  0  0  0  0  0  0999 V2000
    9.2769  -20.6103   17.5141 C   0  0  0  0  0  0  0  0  0  0  0  0
    7.8026  -20.3290   17.7060 C   0  0  0  0  0  0  0  0  0  0  0  0
    7.6486  -19.0087   18.0281 F   0  0  0  0  0  0  0  0  0  0  0  0
    7.3666  -21.0107   18.8091 F   0  0  0  0  0  0  0  0  0  0  0  0
    6.9337  -20.6923   16.4645 C   0  0  0  0  0  0  0  0  0  0  0  0
    7.4370  -21.1146   15.4619 O   0  0  0  0  0  0  0  0  0  0  0  0
    5.5516  -20.4054   16.7772 N   0  0  0  0  0  0  0  0  0  0  0  0
    4.3458  -20.6259   16.0187 C   0  0  0  0  0  0  0  0  0  0  0  0
    3.7240  -19.3961   15.2842 C   0  0  0  0  0  0  0  0  0  0  0  0
    2.4749  -19.8738   14.6013 N   0  0  0  0  0  0  0  0  0  0  0  0
    1.3295  -20.6136   15.1144 C   0  0  0  0  0  0  0  0  0  0  0  0
    1.1314  -21.0973   16.1951 O   0  0  0  0  0  0  0  0  0  0  0  0
    0.2362  -20.7415   14.0104 C   0  0  0  0  0  0  0  0  0  0  0  0
   -0.7144  -21.9108   14.1778 C   0  0  0  0  0  0  0  0  0  0  0  0
   -1.3684  -22.6969   13.2467 C   0  0  0  0  0  0  0  0  0  0  0  0
   -2.0682  -23.6602   13.9972 C   0  0  0  0  0  0  0  0  0  0  0  0
   -1.9175  -23.4855   15.3096 N   0  0  0  0  0  0  0  0  0  0  0  0
   -1.1194  -22.4061   15.3949 N   0  0  0  0  0  0  0  0  0  0  0  0
    4.7018  -18.7938   14.2365 C   0  0  0  0  0  0  0  0  0  0  0  0
    5.7332  -17.8305   14.8136 C   0  0  0  0  0  0  0  0  0  0  0  0
    5.1072  -16.8134   15.5755 O   0  0  0  0  0  0  0  0  0  0  0  0
    4.4241  -17.3485   16.7014 C   0  0  0  0  0  0  0  0  0  0  0  0
    3.3139  -18.2918   16.2701 C   0  0  0  0  0  0  0  0  0  0  0  0
    9.8332  -20.3397   18.4172 H   0  0  0  0  0  0  0  0  0  0  0  0
    9.6848  -20.0264   16.6830 H   0  0  0  0  0  0  0  0  0  0  0  0
    9.4535  -21.6726   17.3183 H   0  0  0  0  0  0  0  0  0  0  0  0
    5.4816  -20.1368   17.7572 H   0  0  0  0  0  0  0  0  0  0  0  0
    4.5656  -21.4093   15.2828 H   0  0  0  0  0  0  0  0  0  0  0  0
    3.6284  -21.0499   16.7290 H   0  0  0  0  0  0  0  0  0  0  0  0
    2.2627  -19.5407   13.6635 H   0  0  0  0  0  0  0  0  0  0  0  0
   -0.3411  -19.8096   14.0121 H   0  0  0  0  0  0  0  0  0  0  0  0
    0.7256  -20.8397   13.0341 H   0  0  0  0  0  0  0  0  0  0  0  0
   -1.3291  -22.6067   12.1712 H   0  0  0  0  0  0  0  0  0  0  0  0
   -2.6868  -24.4712   13.6384 H   0  0  0  0  0  0  0  0  0  0  0  0
   -0.8173  -22.0925   16.3140 H   0  0  0  0  0  0  0  0  0  0  0  0
    5.2039  -19.5936   13.6790 H   0  0  0  0  0  0  0  0  0  0  0  0
    4.1179  -18.2360   13.4951 H   0  0  0  0  0  0  0  0  0  0  0  0
    6.4910  -18.3270   15.4214 H   0  0  0  0  0  0  0  0  0  0  0  0
    6.2619  -17.3756   13.9814 H   0  0  0  0  0  0  0  0  0  0  0  0
    5.1372  -17.8310   17.3767 H   0  0  0  0  0  0  0  0  0  0  0  0
    3.9673  -16.5174   17.2491 H   0  0  0  0  0  0  0  0  0  0  0  0
    2.6025  -17.6640   15.7370 H   0  0  0  0  0  0  0  0  0  0  0  0
    2.7927  -18.7014   17.1427 H   0  0  0  0  0  0  0  0  0  0  0  0
  1  2  1  0
  2  3  1  0
  2  4  1  0
  2  5  1  0
  5  6  2  0
  5  7  1  0
  7  8  1  0
  8  9  1  0
  9 10  1  0
 10 11  1  0
 11 12  2  0
 11 13  1  0
 13 14  1  0
 14 15  2  0
 15 16  1  0
 16 17  2  0
 17 18  1  0
  9 19  1  0
 19 20  1  0
 20 21  1  0
 21 22  1  0
 22 23  1  0
 23  9  1  0
 18 14  1  0
  1 24  1  0
  1 25  1  0
  1 26  1  0
  7 27  1  0
  8 28  1  0
  8 29  1  0
 10 30  1  0
 13 31  1  0
 13 32  1  0
 15 33  1  0
 16 34  1  0
 18 35  1  0
 19 36  1  0
 19 37  1  0
 20 38  1  0
 20 39  1  0
 22 40  1  0
 22 41  1  0
 23 42  1  0
 23 43  1  0
M  END
>  <Energy>  (540) 
91.660128993498859

>  <compound_id>  (540) 
90264

>  <target_id>  (540) 
1

>  <reference_id>  (540) 
112

>  <inspiration_ids>  (540) 
[112, 81]

>  <energy_score>  (540) 
-39.709729590045924

>  <distance_score>  (540) 
14.52862744095261

>  <path>  (540) 
/opt/xchem-fragalysis-2/maxwin/BulkDock/SCRATCH/511016/C90264-P112/C90264-P112.minimised.mol

>  <scratch_subdir>  (540) 
/opt/xchem-fragalysis-2/maxwin/BulkDock/SCRATCH/511016/C90264-P112

>  <fragmenstein_runtime>  (540) 
13.615138530731201

>  <fragmenstein_outcome>  (540) 
too moved

>  <fragmenstein_mode>  (540) 
expansion

>  <fragmenstein_error>  (540) 


$$$$
C90264-P81
     RDKit          3D

 43 44  0  0  0  0  0  0  0  0999 V2000
   -3.1898   -4.8503    9.5762 C   0  0  0  0  0  0  0  0  0  0  0  0
   -4.3101   -5.7990    9.9448 C   0  0  0  0  0  0  0  0  0  0  0  0
   -5.4494   -5.3983    9.3061 F   0  0  0  0  0  0  0  0  0  0  0  0
   -4.5853   -5.6571   11.2810 F   0  0  0  0  0  0  0  0  0  0  0  0
   -3.9675   -7.2769    9.5937 C   0  0  0  0  0  0  0  0  0  0  0  0
   -3.4467   -7.5519    8.5490 O   0  0  0  0  0  0  0  0  0  0  0  0
   -4.4196   -8.1240   10.6728 N   0  0  0  0  0  0  0  0  0  0  0  0
   -4.3005   -9.5439   10.8705 C   0  0  0  0  0  0  0  0  0  0  0  0
   -2.9651  -10.0510   11.5037 C   0  0  0  0  0  0  0  0  0  0  0  0
   -3.0307  -11.5674   11.4988 N   0  0  0  0  0  0  0  0  0  0  0  0
   -3.9947  -12.4908   12.1107 C   0  0  0  0  0  0  0  0  0  0  0  0
   -4.9282  -12.2788   12.8352 O   0  0  0  0  0  0  0  0  0  0  0  0
   -3.6545  -13.9576   11.6767 C   0  0  0  0  0  0  0  0  0  0  0  0
   -4.6255  -15.0755   12.0583 C   0  0  0  0  0  0  0  0  0  0  0  0
   -4.5120  -16.4495   11.8945 C   0  0  0  0  0  0  0  0  0  0  0  0
   -5.7078  -16.9995   12.3950 C   0  0  0  0  0  0  0  0  0  0  0  0
   -6.5337  -16.0570   12.8532 N   0  0  0  0  0  0  0  0  0  0  0  0
   -5.8539  -14.9059   12.6527 N   0  0  0  0  0  0  0  0  0  0  0  0
   -1.7166   -9.5960   10.6969 C   0  0  0  0  0  0  0  0  0  0  0  0
   -1.0495   -8.2841   11.1180 C   0  0  0  0  0  0  0  0  0  0  0  0
   -1.8919   -7.4278   11.8646 O   0  0  0  0  0  0  0  0  0  0  0  0
   -2.4227   -8.0233   13.0407 C   0  0  0  0  0  0  0  0  0  0  0  0
   -2.7683   -9.5204   12.9303 C   0  0  0  0  0  0  0  0  0  0  0  0
   -3.4501   -3.8281    9.8687 H   0  0  0  0  0  0  0  0  0  0  0  0
   -3.0070   -4.8523    8.4972 H   0  0  0  0  0  0  0  0  0  0  0  0
   -2.2613   -5.1191   10.0891 H   0  0  0  0  0  0  0  0  0  0  0  0
   -4.8909   -7.5497   11.3707 H   0  0  0  0  0  0  0  0  0  0  0  0
   -4.4282  -10.0116    9.8864 H   0  0  0  0  0  0  0  0  0  0  0  0
   -5.1534   -9.8475   11.4877 H   0  0  0  0  0  0  0  0  0  0  0  0
   -2.4194  -12.0900   10.8721 H   0  0  0  0  0  0  0  0  0  0  0  0
   -2.6732  -14.1992   12.1039 H   0  0  0  0  0  0  0  0  0  0  0  0
   -3.5637  -13.9668   10.5832 H   0  0  0  0  0  0  0  0  0  0  0  0
   -3.6778  -16.9862   11.4636 H   0  0  0  0  0  0  0  0  0  0  0  0
   -5.9988  -18.0417   12.4336 H   0  0  0  0  0  0  0  0  0  0  0  0
   -6.2751  -14.0283   12.9490 H   0  0  0  0  0  0  0  0  0  0  0  0
   -1.9898   -9.5319    9.6393 H   0  0  0  0  0  0  0  0  0  0  0  0
   -0.9420  -10.3686   10.7592 H   0  0  0  0  0  0  0  0  0  0  0  0
   -0.7046   -7.7408   10.2319 H   0  0  0  0  0  0  0  0  0  0  0  0
   -0.1695   -8.4967   11.7094 H   0  0  0  0  0  0  0  0  0  0  0  0
   -1.7347   -7.8442   13.8719 H   0  0  0  0  0  0  0  0  0  0  0  0
   -3.3335   -7.4661   13.2870 H   0  0  0  0  0  0  0  0  0  0  0  0
   -1.9230  -10.0707   13.3502 H   0  0  0  0  0  0  0  0  0  0  0  0
   -3.6223   -9.7560   13.5762 H   0  0  0  0  0  0  0  0  0  0  0  0
  1  2  1  0
  2  3  1  0
  2  4  1  0
  2  5  1  0
  5  6  2  0
  5  7  1  0
  7  8  1  0
  8  9  1  0
  9 10  1  0
 10 11  1  0
 11 12  2  0
 11 13  1  0
 13 14  1  0
 14 15  2  0
 15 16  1  0
 16 17  2  0
 17 18  1  0
  9 19  1  0
 19 20  1  0
 20 21  1  0
 21 22  1  0
 22 23  1  0
 23  9  1  0
 18 14  1  0
  1 24  1  0
  1 25  1  0
  1 26  1  0
  7 27  1  0
  8 28  1  0
  8 29  1  0
 10 30  1  0
 13 31  1  0
 13 32  1  0
 15 33  1  0
 16 34  1  0
 18 35  1  0
 19 36  1  0
 19 37  1  0
 20 38  1  0
 20 39  1  0
 22 40  1  0
 22 41  1  0
 23 42  1  0
 23 43  1  0
M  END
>  <Energy>  (541) 
98.552743414103759

>  <compound_id>  (541) 
90264

>  <target_id>  (541) 
1

>  <reference_id>  (541) 
81

>  <inspiration_ids>  (541) 
[112, 81]

>  <energy_score>  (541) 
-32.817115169441735

>  <distance_score>  (541) 
14.147606738627353

>  <path>  (541) 
/opt/xchem-fragalysis-2/maxwin/BulkDock/SCRATCH/511016/C90264-P81/C90264-P81.minimised.mol

>  <scratch_subdir>  (541) 
/opt/xchem-fragalysis-2/maxwin/BulkDock/SCRATCH/511016/C90264-P81

>  <fragmenstein_runtime>  (541) 
30.044373512268066

>  <fragmenstein_outcome>  (541) 
too moved

>  <fragmenstein_mode>  (541) 
expansion

>  <fragmenstein_error>  (541) 


$$$$
C90265-P112
     RDKit          3D

 40 41  0  0  0  0  0  0  0  0999 V2000
   -0.7086  -10.3717   12.6248 O   0  0  0  0  0  0  0  0  0  0  0  0
   -0.8973  -10.8447   13.7076 C   0  0  0  0  0  0  0  0  0  0  0  0
   -0.9971  -12.7793   13.5075 C   0  0  0  0  0  0  0  0  0  0  0  0
   -1.2656  -14.5370   14.0487 C   0  0  0  0  0  0  0  0  0  0  0  0
   -1.3095  -15.2172   15.2746 C   0  0  0  0  0  0  0  0  0  0  0  0
   -1.8903  -16.4804   15.0175 C   0  0  0  0  0  0  0  0  0  0  0  0
   -2.1711  -16.6493   13.7277 N   0  0  0  0  0  0  0  0  0  0  0  0
   -1.6839  -15.5372   13.1483 N   0  0  0  0  0  0  0  0  0  0  0  0
   -0.7687   -9.7988   15.3578 N   0  0  0  0  0  0  0  0  0  0  0  0
   -0.0972   -7.8776   15.7792 C   0  0  0  0  0  0  0  0  0  0  0  0
    1.5622   -7.6040   16.6544 C   0  0  0  0  0  0  0  0  0  0  0  0
    1.8737   -6.2726   17.1775 N   0  0  0  0  0  0  0  0  0  0  0  0
    2.3857   -5.8555   18.4667 C   0  0  0  0  0  0  0  0  0  0  0  0
    2.6094   -6.4875   19.4602 O   0  0  0  0  0  0  0  0  0  0  0  0
    2.5629   -4.3174   18.4615 C   0  0  0  0  0  0  0  0  0  0  0  0
    1.5364   -3.7010   19.1123 F   0  0  0  0  0  0  0  0  0  0  0  0
    2.5283   -3.8307   17.1817 F   0  0  0  0  0  0  0  0  0  0  0  0
   -0.4368   -7.8015   17.6567 C   0  0  0  0  0  0  0  0  0  0  0  0
   -0.9605   -6.4474   18.1391 C   0  0  0  0  0  0  0  0  0  0  0  0
   -1.7550   -5.8453   17.1377 O   0  0  0  0  0  0  0  0  0  0  0  0
   -0.9972   -5.2097   16.1345 C   0  0  0  0  0  0  0  0  0  0  0  0
   -0.3353   -6.2146   15.1711 C   0  0  0  0  0  0  0  0  0  0  0  0
    0.1266  -12.8929   13.3679 H   0  0  0  0  0  0  0  0  0  0  0  0
   -0.7333  -12.9054   12.3925 H   0  0  0  0  0  0  0  0  0  0  0  0
   -1.0231  -14.8204   16.2384 H   0  0  0  0  0  0  0  0  0  0  0  0
   -2.1245  -17.2690   15.7209 H   0  0  0  0  0  0  0  0  0  0  0  0
   -1.7137  -15.4846   12.1341 H   0  0  0  0  0  0  0  0  0  0  0  0
   -1.0171  -10.2959   16.0453 H   0  0  0  0  0  0  0  0  0  0  0  0
    1.7582   -8.3096   17.4760 H   0  0  0  0  0  0  0  0  0  0  0  0
    2.4670   -7.7875   16.0772 H   0  0  0  0  0  0  0  0  0  0  0  0
    1.8916   -5.4771   16.5400 H   0  0  0  0  0  0  0  0  0  0  0  0
    3.5118   -4.0378   18.9236 H   0  0  0  0  0  0  0  0  0  0  0  0
    0.3322   -8.1286   18.3618 H   0  0  0  0  0  0  0  0  0  0  0  0
   -1.1450   -8.6060   17.9490 H   0  0  0  0  0  0  0  0  0  0  0  0
   -1.6108   -6.6229   19.0038 H   0  0  0  0  0  0  0  0  0  0  0  0
   -0.1920   -5.7586   18.4890 H   0  0  0  0  0  0  0  0  0  0  0  0
   -0.2617   -4.5337   16.5869 H   0  0  0  0  0  0  0  0  0  0  0  0
   -1.6763   -4.5711   15.5584 H   0  0  0  0  0  0  0  0  0  0  0  0
   -0.8671   -6.2302   14.2036 H   0  0  0  0  0  0  0  0  0  0  0  0
    0.5938   -5.6827   14.9702 H   0  0  0  0  0  0  0  0  0  0  0  0
  1  2  2  0
  2  3  1  0
  3  4  1  0
  4  5  2  0
  5  6  1  0
  6  7  2  0
  7  8  1  0
  2  9  1  0
  9 10  1  0
 10 11  1  0
 11 12  1  0
 12 13  1  0
 13 14  2  0
 13 15  1  0
 15 16  1  0
 15 17  1  0
 10 18  1  0
 18 19  1  0
 19 20  1  0
 20 21  1  0
 21 22  1  0
  8  4  1  0
 22 10  1  0
  3 23  1  0
  3 24  1  0
  5 25  1  0
  6 26  1  0
  8 27  1  0
  9 28  1  0
 11 29  1  0
 11 30  1  0
 12 31  1  0
 15 32  1  0
 18 33  1  0
 18 34  1  0
 19 35  1  0
 19 36  1  0
 21 37  1  0
 21 38  1  0
 22 39  1  0
 22 40  1  0
M  END
>  <Energy>  (542) 
623.13379027890949

>  <compound_id>  (542) 
90265

>  <target_id>  (542) 
1

>  <reference_id>  (542) 
112

>  <inspiration_ids>  (542) 
[112, 81]

>  <energy_score>  (542) 
494.15826995208

>  <distance_score>  (542) 
14.265854058262727

>  <path>  (542) 
/opt/xchem-fragalysis-2/maxwin/BulkDock/SCRATCH/511016/C90265-P112/C90265-P112.minimised.mol

>  <scratch_subdir>  (542) 
/opt/xchem-fragalysis-2/maxwin/BulkDock/SCRATCH/511016/C90265-P112

>  <fragmenstein_runtime>  (542) 
25.338135957717896

>  <fragmenstein_outcome>  (542) 
too moved

>  <fragmenstein_mode>  (542) 
expansion

>  <fragmenstein_error>  (542) 


$$$$
C90265-P81
     RDKit          3D

 40 41  0  0  0  0  0  0  0  0999 V2000
    1.3026  -12.3427   14.2824 O   0  0  0  0  0  0  0  0  0  0  0  0
    2.0953  -12.3982   15.2769 C   0  0  0  0  0  0  0  0  0  0  0  0
    1.3886  -13.8286   16.7067 C   0  0  0  0  0  0  0  0  0  0  0  0
   -0.1037  -14.7365   16.8125 C   0  0  0  0  0  0  0  0  0  0  0  0
   -0.9138  -15.0355   17.8980 C   0  0  0  0  0  0  0  0  0  0  0  0
   -1.9242  -15.8980   17.4064 C   0  0  0  0  0  0  0  0  0  0  0  0
   -1.7901  -16.1463   16.1044 N   0  0  0  0  0  0  0  0  0  0  0  0
   -0.6752  -15.4568   15.7692 N   0  0  0  0  0  0  0  0  0  0  0  0
    3.8387  -11.4082   15.4040 N   0  0  0  0  0  0  0  0  0  0  0  0
    4.9211  -10.1903   14.0411 C   0  0  0  0  0  0  0  0  0  0  0  0
    4.5670   -8.2975   13.7308 C   0  0  0  0  0  0  0  0  0  0  0  0
    5.9540   -7.7281   13.9980 N   0  0  0  0  0  0  0  0  0  0  0  0
    6.5865   -7.0980   15.3309 C   0  0  0  0  0  0  0  0  0  0  0  0
    6.0694   -6.8390   16.4234 O   0  0  0  0  0  0  0  0  0  0  0  0
    8.0399   -6.9380   15.1575 C   0  0  0  0  0  0  0  0  0  0  0  0
    8.6429   -5.9776   14.3988 F   0  0  0  0  0  0  0  0  0  0  0  0
    8.9092   -7.9477   15.0879 F   0  0  0  0  0  0  0  0  0  0  0  0
    6.2456  -10.7729   14.0994 C   0  0  0  0  0  0  0  0  0  0  0  0
    7.9154  -10.3825   15.4918 C   0  0  0  0  0  0  0  0  0  0  0  0
    9.2180  -10.7167   15.2253 O   0  0  0  0  0  0  0  0  0  0  0  0
    8.7439  -10.7990   13.9845 C   0  0  0  0  0  0  0  0  0  0  0  0
    7.0548   -9.7164   13.7896 C   0  0  0  0  0  0  0  0  0  0  0  0
    2.0584  -14.7495   16.9504 H   0  0  0  0  0  0  0  0  0  0  0  0
    1.6825  -13.7056   17.8221 H   0  0  0  0  0  0  0  0  0  0  0  0
   -0.7819  -14.6918   18.9131 H   0  0  0  0  0  0  0  0  0  0  0  0
   -2.7438  -16.3515   17.9478 H   0  0  0  0  0  0  0  0  0  0  0  0
   -0.3293  -15.4998   14.8145 H   0  0  0  0  0  0  0  0  0  0  0  0
    4.2326  -11.5464   16.3014 H   0  0  0  0  0  0  0  0  0  0  0  0
    4.1688   -7.9835   12.7791 H   0  0  0  0  0  0  0  0  0  0  0  0
    3.8003   -7.8400   14.3403 H   0  0  0  0  0  0  0  0  0  0  0  0
    6.6477   -7.7225   13.2586 H   0  0  0  0  0  0  0  0  0  0  0  0
    7.8193   -6.4614   16.0631 H   0  0  0  0  0  0  0  0  0  0  0  0
    5.4871  -11.6147   14.3145 H   0  0  0  0  0  0  0  0  0  0  0  0
    6.3344  -11.7533   13.4369 H   0  0  0  0  0  0  0  0  0  0  0  0
    7.8868  -10.7693   16.5453 H   0  0  0  0  0  0  0  0  0  0  0  0
    8.0964   -9.3723   15.7997 H   0  0  0  0  0  0  0  0  0  0  0  0
    9.5992  -10.5173   13.3749 H   0  0  0  0  0  0  0  0  0  0  0  0
    8.6231  -11.8926   13.8174 H   0  0  0  0  0  0  0  0  0  0  0  0
    7.5070   -8.8172   14.2117 H   0  0  0  0  0  0  0  0  0  0  0  0
    7.5038   -9.1598   12.8682 H   0  0  0  0  0  0  0  0  0  0  0  0
  1  2  2  0
  2  3  1  0
  3  4  1  0
  4  5  2  0
  5  6  1  0
  6  7  2  0
  7  8  1  0
  2  9  1  0
  9 10  1  0
 10 11  1  0
 11 12  1  0
 12 13  1  0
 13 14  2  0
 13 15  1  0
 15 16  1  0
 15 17  1  0
 10 18  1  0
 18 19  1  0
 19 20  1  0
 20 21  1  0
 21 22  1  0
  8  4  1  0
 22 10  1  0
  3 23  1  0
  3 24  1  0
  5 25  1  0
  6 26  1  0
  8 27  1  0
  9 28  1  0
 11 29  1  0
 11 30  1  0
 12 31  1  0
 15 32  1  0
 18 33  1  0
 18 34  1  0
 19 35  1  0
 19 36  1  0
 21 37  1  0
 21 38  1  0
 22 39  1  0
 22 40  1  0
M  END
>  <Energy>  (543) 
1350.0060735042637

>  <compound_id>  (543) 
90265

>  <target_id>  (543) 
1

>  <reference_id>  (543) 
81

>  <inspiration_ids>  (543) 
[112, 81]

>  <energy_score>  (543) 
1221.0305531774475

>  <distance_score>  (543) 
13.647714192074053

>  <path>  (543) 
/opt/xchem-fragalysis-2/maxwin/BulkDock/SCRATCH/511016/C90265-P81/C90265-P81.minimised.mol

>  <scratch_subdir>  (543) 
/opt/xchem-fragalysis-2/maxwin/BulkDock/SCRATCH/511016/C90265-P81

>  <fragmenstein_runtime>  (543) 
18.32155704498291

>  <fragmenstein_outcome>  (543) 
too moved

>  <fragmenstein_mode>  (543) 
expansion

>  <fragmenstein_error>  (543) 


$$$$
C90266-P112
     RDKit          3D

 34 35  0  0  0  0  0  0  0  0999 V2000
   -6.2409  -25.0350   19.4651 O   0  0  0  0  0  0  0  0  0  0  0  0
   -6.5296  -24.2188   18.6168 C   0  0  0  0  0  0  0  0  0  0  0  0
   -7.7629  -24.5981   17.0328 C   0  0  0  0  0  0  0  0  0  0  0  0
   -8.8384  -26.0257   16.1985 C   0  0  0  0  0  0  0  0  0  0  0  0
   -9.8828  -25.9221   15.2726 C   0  0  0  0  0  0  0  0  0  0  0  0
  -10.1631  -27.2364   14.8725 C   0  0  0  0  0  0  0  0  0  0  0  0
   -9.3279  -28.1178   15.4164 N   0  0  0  0  0  0  0  0  0  0  0  0
   -8.4581  -27.3569   16.1121 N   0  0  0  0  0  0  0  0  0  0  0  0
   -5.9674  -22.6961   18.4091 N   0  0  0  0  0  0  0  0  0  0  0  0
   -4.8074  -21.8860   19.1804 C   0  0  0  0  0  0  0  0  0  0  0  0
   -4.9007  -20.2494   18.7429 C   0  0  0  0  0  0  0  0  0  0  0  0
   -3.7852  -19.3490   18.8970 O   0  0  0  0  0  0  0  0  0  0  0  0
   -4.8280  -22.0329   20.6987 C   0  0  0  0  0  0  0  0  0  0  0  0
   -3.4453  -21.7905   21.3336 C   0  0  0  0  0  0  0  0  0  0  0  0
   -2.6040  -20.9472   20.5311 O   0  0  0  0  0  0  0  0  0  0  0  0
   -2.2081  -21.6155   19.3212 C   0  0  0  0  0  0  0  0  0  0  0  0
   -3.4030  -22.3141   18.6366 C   0  0  0  0  0  0  0  0  0  0  0  0
   -6.9869  -25.3521   16.6617 H   0  0  0  0  0  0  0  0  0  0  0  0
   -8.2664  -23.8563   16.2693 H   0  0  0  0  0  0  0  0  0  0  0  0
  -10.3523  -25.0193   14.9165 H   0  0  0  0  0  0  0  0  0  0  0  0
  -10.9244  -27.5878   14.1885 H   0  0  0  0  0  0  0  0  0  0  0  0
   -7.6719  -27.8000   16.5838 H   0  0  0  0  0  0  0  0  0  0  0  0
   -6.4651  -22.2572   17.6710 H   0  0  0  0  0  0  0  0  0  0  0  0
   -5.1540  -20.2243   17.6782 H   0  0  0  0  0  0  0  0  0  0  0  0
   -5.7549  -19.8165   19.2758 H   0  0  0  0  0  0  0  0  0  0  0  0
   -3.3674  -19.5562   19.7590 H   0  0  0  0  0  0  0  0  0  0  0  0
   -5.5541  -21.3289   21.1225 H   0  0  0  0  0  0  0  0  0  0  0  0
   -5.1752  -23.0275   20.9999 H   0  0  0  0  0  0  0  0  0  0  0  0
   -3.5698  -21.3089   22.3090 H   0  0  0  0  0  0  0  0  0  0  0  0
   -2.9296  -22.7425   21.5111 H   0  0  0  0  0  0  0  0  0  0  0  0
   -1.4261  -22.3456   19.5598 H   0  0  0  0  0  0  0  0  0  0  0  0
   -1.7555  -20.8745   18.6543 H   0  0  0  0  0  0  0  0  0  0  0  0
   -3.2972  -23.3974   18.7857 H   0  0  0  0  0  0  0  0  0  0  0  0
   -3.3423  -22.1695   17.5509 H   0  0  0  0  0  0  0  0  0  0  0  0
  1  2  2  0
  2  3  1  0
  3  4  1  0
  4  5  2  0
  5  6  1  0
  6  7  2  0
  7  8  1  0
  2  9  1  0
  9 10  1  0
 10 11  1  0
 11 12  1  0
 10 13  1  0
 13 14  1  0
 14 15  1  0
 15 16  1  0
 16 17  1  0
  8  4  1  0
 17 10  1  0
  3 18  1  0
  3 19  1  0
  5 20  1  0
  6 21  1  0
  8 22  1  0
  9 23  1  0
 11 24  1  0
 11 25  1  0
 12 26  1  0
 13 27  1  0
 13 28  1  0
 14 29  1  0
 14 30  1  0
 16 31  1  0
 16 32  1  0
 17 33  1  0
 17 34  1  0
M  END
>  <Energy>  (544) 
246.84797402081247

>  <compound_id>  (544) 
90266

>  <target_id>  (544) 
1

>  <reference_id>  (544) 
112

>  <inspiration_ids>  (544) 
[112, 81]

>  <energy_score>  (544) 
170.3638652487104

>  <distance_score>  (544) 
16.511245026889412

>  <path>  (544) 
/opt/xchem-fragalysis-2/maxwin/BulkDock/SCRATCH/511016/C90266-P112/C90266-P112.minimised.mol

>  <scratch_subdir>  (544) 
/opt/xchem-fragalysis-2/maxwin/BulkDock/SCRATCH/511016/C90266-P112

>  <fragmenstein_runtime>  (544) 
11.588924407958984

>  <fragmenstein_outcome>  (544) 
too moved

>  <fragmenstein_mode>  (544) 
expansion

>  <fragmenstein_error>  (544) 


$$$$
C90266-P81
     RDKit          3D

 34 35  0  0  0  0  0  0  0  0999 V2000
    6.2050  -11.8814   13.1887 O   0  0  0  0  0  0  0  0  0  0  0  0
    6.1063  -10.6150   13.1159 C   0  0  0  0  0  0  0  0  0  0  0  0
    4.5750  -10.1265   13.6868 C   0  0  0  0  0  0  0  0  0  0  0  0
    3.2515  -10.4934   12.2458 C   0  0  0  0  0  0  0  0  0  0  0  0
    1.8870  -11.0237   12.2279 C   0  0  0  0  0  0  0  0  0  0  0  0
    1.1505  -10.8409   11.1656 C   0  0  0  0  0  0  0  0  0  0  0  0
    1.9682  -10.2074   10.3814 N   0  0  0  0  0  0  0  0  0  0  0  0
    3.1985  -10.4311   10.8385 N   0  0  0  0  0  0  0  0  0  0  0  0
    7.4086   -9.1461   12.2247 N   0  0  0  0  0  0  0  0  0  0  0  0
    9.1543   -9.2691   10.9901 C   0  0  0  0  0  0  0  0  0  0  0  0
   10.0719   -8.0769    9.9526 C   0  0  0  0  0  0  0  0  0  0  0  0
   11.4260   -7.5843   10.2261 O   0  0  0  0  0  0  0  0  0  0  0  0
    8.8143   -9.7577    9.2079 C   0  0  0  0  0  0  0  0  0  0  0  0
    9.7085  -10.9406    8.7410 C   0  0  0  0  0  0  0  0  0  0  0  0
   11.0973  -10.6754    8.9199 O   0  0  0  0  0  0  0  0  0  0  0  0
   11.5560  -10.5627   10.2630 C   0  0  0  0  0  0  0  0  0  0  0  0
   10.4453  -10.4747   11.2979 C   0  0  0  0  0  0  0  0  0  0  0  0
    4.2311  -10.8112   14.4566 H   0  0  0  0  0  0  0  0  0  0  0  0
    4.4919   -9.0417   13.7348 H   0  0  0  0  0  0  0  0  0  0  0  0
    1.4665  -11.5270   13.0599 H   0  0  0  0  0  0  0  0  0  0  0  0
    0.1343  -11.1436   11.0165 H   0  0  0  0  0  0  0  0  0  0  0  0
    3.9343  -10.2363   10.1798 H   0  0  0  0  0  0  0  0  0  0  0  0
    7.0971   -8.1780   12.4046 H   0  0  0  0  0  0  0  0  0  0  0  0
    9.3778   -7.3963    9.4218 H   0  0  0  0  0  0  0  0  0  0  0  0
   10.4983   -8.5838    9.0898 H   0  0  0  0  0  0  0  0  0  0  0  0
   11.2909   -6.6342   10.4064 H   0  0  0  0  0  0  0  0  0  0  0  0
    8.9775   -8.9706    8.4523 H   0  0  0  0  0  0  0  0  0  0  0  0
    7.7827   -9.7860    8.8343 H   0  0  0  0  0  0  0  0  0  0  0  0
    9.4498  -11.8973    9.2064 H   0  0  0  0  0  0  0  0  0  0  0  0
    9.5529  -11.0787    7.6650 H   0  0  0  0  0  0  0  0  0  0  0  0
   12.1493  -11.4632   10.4655 H   0  0  0  0  0  0  0  0  0  0  0  0
   12.2696   -9.7415   10.3249 H   0  0  0  0  0  0  0  0  0  0  0  0
   10.8471  -10.4057   12.3017 H   0  0  0  0  0  0  0  0  0  0  0  0
   10.0559  -11.4879   11.2386 H   0  0  0  0  0  0  0  0  0  0  0  0
  1  2  2  0
  2  3  1  0
  3  4  1  0
  4  5  2  0
  5  6  1  0
  6  7  2  0
  7  8  1  0
  2  9  1  0
  9 10  1  0
 10 11  1  0
 11 12  1  0
 10 13  1  0
 13 14  1  0
 14 15  1  0
 15 16  1  0
 16 17  1  0
  8  4  1  0
 17 10  1  0
  3 18  1  0
  3 19  1  0
  5 20  1  0
  6 21  1  0
  8 22  1  0
  9 23  1  0
 11 24  1  0
 11 25  1  0
 12 26  1  0
 13 27  1  0
 13 28  1  0
 14 29  1  0
 14 30  1  0
 16 31  1  0
 16 32  1  0
 17 33  1  0
 17 34  1  0
M  END
>  <Energy>  (545) 
696.55926145892295

>  <compound_id>  (545) 
90266

>  <target_id>  (545) 
1

>  <reference_id>  (545) 
81

>  <inspiration_ids>  (545) 
[112, 81]

>  <energy_score>  (545) 
620.0751526868205

>  <distance_score>  (545) 
17.319066460304473

>  <path>  (545) 
/opt/xchem-fragalysis-2/maxwin/BulkDock/SCRATCH/511016/C90266-P81/C90266-P81.minimised.mol

>  <scratch_subdir>  (545) 
/opt/xchem-fragalysis-2/maxwin/BulkDock/SCRATCH/511016/C90266-P81

>  <fragmenstein_runtime>  (545) 
12.53479528427124

>  <fragmenstein_outcome>  (545) 
too moved

>  <fragmenstein_mode>  (545) 
expansion

>  <fragmenstein_error>  (545) 


$$$$
C90262-P112
     RDKit          3D

 52 53  0  0  0  0  0  0  0  0999 V2000
   13.5720   -5.0089   18.2951 C   0  0  0  0  0  0  0  0  0  0  0  0
   12.6556   -5.3681   17.0549 C   0  0  0  0  0  0  0  0  0  0  0  0
   12.4084   -6.9589   15.9032 C   0  0  0  0  0  0  0  0  0  0  0  0
   11.6215   -5.4436   15.1653 C   0  0  0  0  0  0  0  0  0  0  0  0
   13.9575   -6.2742   15.2185 C   0  0  0  0  0  0  0  0  0  0  0  0
   11.5214   -8.9464   16.2240 C   0  0  0  0  0  0  0  0  0  0  0  0
   12.2448   -9.8866   16.4684 O   0  0  0  0  0  0  0  0  0  0  0  0
    9.6448   -9.1316   16.3486 N   0  0  0  0  0  0  0  0  0  0  0  0
    8.5104  -10.5876   17.0297 C   0  0  0  0  0  0  0  0  0  0  0  0
    7.0058  -10.6670   18.6197 C   0  0  0  0  0  0  0  0  0  0  0  0
    5.5514  -12.1032   18.8093 N   0  0  0  0  0  0  0  0  0  0  0  0
    3.8305  -12.3482   17.9085 C   0  0  0  0  0  0  0  0  0  0  0  0
    3.4776  -11.4831   17.1227 O   0  0  0  0  0  0  0  0  0  0  0  0
    2.4533  -13.9291   17.8711 C   0  0  0  0  0  0  0  0  0  0  0  0
    0.4219  -13.8379   17.5871 C   0  0  0  0  0  0  0  0  0  0  0  0
   -0.9805  -12.9207   17.9097 C   0  0  0  0  0  0  0  0  0  0  0  0
   -2.2229  -13.6411   17.8130 C   0  0  0  0  0  0  0  0  0  0  0  0
   -1.8645  -14.7082   17.1554 N   0  0  0  0  0  0  0  0  0  0  0  0
   -0.7267  -14.1405   16.6664 N   0  0  0  0  0  0  0  0  0  0  0  0
    6.4241   -9.7816   20.0517 C   0  0  0  0  0  0  0  0  0  0  0  0
    7.3267   -8.8346   20.8599 C   0  0  0  0  0  0  0  0  0  0  0  0
    8.1625   -9.5606   21.7440 O   0  0  0  0  0  0  0  0  0  0  0  0
    8.3663  -10.8820   21.2746 C   0  0  0  0  0  0  0  0  0  0  0  0
    8.4487  -10.9133   19.7557 C   0  0  0  0  0  0  0  0  0  0  0  0
   14.6375   -4.9593   18.0450 H   0  0  0  0  0  0  0  0  0  0  0  0
   13.4265   -5.6129   19.1854 H   0  0  0  0  0  0  0  0  0  0  0  0
   13.3131   -3.9865   18.6065 H   0  0  0  0  0  0  0  0  0  0  0  0
   13.0501   -4.5299   16.4547 H   0  0  0  0  0  0  0  0  0  0  0  0
   11.6816   -4.9117   17.3347 H   0  0  0  0  0  0  0  0  0  0  0  0
   11.2595   -5.5062   14.1949 H   0  0  0  0  0  0  0  0  0  0  0  0
   10.9865   -4.8132   15.7531 H   0  0  0  0  0  0  0  0  0  0  0  0
   12.3432   -4.6613   14.8771 H   0  0  0  0  0  0  0  0  0  0  0  0
   14.7628   -6.9681   15.0134 H   0  0  0  0  0  0  0  0  0  0  0  0
   14.4643   -5.4875   15.8210 H   0  0  0  0  0  0  0  0  0  0  0  0
   13.8668   -5.4864   14.4985 H   0  0  0  0  0  0  0  0  0  0  0  0
    9.2239   -8.3012   16.0254 H   0  0  0  0  0  0  0  0  0  0  0  0
    9.3465  -10.8199   17.7036 H   0  0  0  0  0  0  0  0  0  0  0  0
    8.7395  -11.4736   16.4346 H   0  0  0  0  0  0  0  0  0  0  0  0
    5.6687  -12.8478   19.4862 H   0  0  0  0  0  0  0  0  0  0  0  0
    2.6434  -14.5668   18.7600 H   0  0  0  0  0  0  0  0  0  0  0  0
    2.6728  -14.7321   17.1476 H   0  0  0  0  0  0  0  0  0  0  0  0
   -1.0322  -11.9565   18.4145 H   0  0  0  0  0  0  0  0  0  0  0  0
   -3.2230  -13.4379   18.1682 H   0  0  0  0  0  0  0  0  0  0  0  0
   -0.6472  -14.0767   15.6633 H   0  0  0  0  0  0  0  0  0  0  0  0
    5.5508   -9.1776   19.7896 H   0  0  0  0  0  0  0  0  0  0  0  0
    6.0405  -10.5507   20.7340 H   0  0  0  0  0  0  0  0  0  0  0  0
    7.9579   -8.1850   20.2593 H   0  0  0  0  0  0  0  0  0  0  0  0
    6.7048   -8.1809   21.4814 H   0  0  0  0  0  0  0  0  0  0  0  0
    9.3199  -11.2150   21.7002 H   0  0  0  0  0  0  0  0  0  0  0  0
    7.6044  -11.5628   21.6698 H   0  0  0  0  0  0  0  0  0  0  0  0
    9.0829  -10.0501   19.5015 H   0  0  0  0  0  0  0  0  0  0  0  0
    9.0831  -11.7662   19.5413 H   0  0  0  0  0  0  0  0  0  0  0  0
  1  2  1  0
  2  3  1  0
  3  4  1  0
  3  5  1  0
  3  6  1  0
  6  7  2  0
  6  8  1  0
  8  9  1  0
  9 10  1  0
 10 11  1  0
 11 12  1  0
 12 13  2  0
 12 14  1  0
 14 15  1  0
 15 16  2  0
 16 17  1  0
 17 18  2  0
 18 19  1  0
 10 20  1  0
 20 21  1  0
 21 22  1  0
 22 23  1  0
 23 24  1  0
 24 10  1  0
 19 15  1  0
  1 25  1  0
  1 26  1  0
  1 27  1  0
  2 28  1  0
  2 29  1  0
  4 30  1  0
  4 31  1  0
  4 32  1  0
  5 33  1  0
  5 34  1  0
  5 35  1  0
  8 36  1  0
  9 37  1  0
  9 38  1  0
 11 39  1  0
 14 40  1  0
 14 41  1  0
 16 42  1  0
 17 43  1  0
 19 44  1  0
 20 45  1  0
 20 46  1  0
 21 47  1  0
 21 48  1  0
 23 49  1  0
 23 50  1  0
 24 51  1  0
 24 52  1  0
M  END
>  <Energy>  (546) 
1297.6196846709802

>  <compound_id>  (546) 
90262

>  <target_id>  (546) 
1

>  <reference_id>  (546) 
112

>  <inspiration_ids>  (546) 
[112, 81]

>  <energy_score>  (546) 
1211.543765051461

>  <distance_score>  (546) 
14.79320712565191

>  <path>  (546) 
/opt/xchem-fragalysis-2/maxwin/BulkDock/SCRATCH/511016/C90262-P112/C90262-P112.minimised.mol

>  <scratch_subdir>  (546) 
/opt/xchem-fragalysis-2/maxwin/BulkDock/SCRATCH/511016/C90262-P112

>  <fragmenstein_runtime>  (546) 
18.26928210258484

>  <fragmenstein_outcome>  (546) 
too moved

>  <fragmenstein_mode>  (546) 
expansion

>  <fragmenstein_error>  (546) 


$$$$
C90262-P81
     RDKit          3D

 52 53  0  0  0  0  0  0  0  0999 V2000
   12.6320   -1.6218   15.2133 C   0  0  0  0  0  0  0  0  0  0  0  0
   12.2782   -3.0140   14.6457 C   0  0  0  0  0  0  0  0  0  0  0  0
   10.9431   -3.8302   15.2371 C   0  0  0  0  0  0  0  0  0  0  0  0
   11.6261   -4.3082   16.5095 C   0  0  0  0  0  0  0  0  0  0  0  0
    9.9995   -2.6005   15.1868 C   0  0  0  0  0  0  0  0  0  0  0  0
   10.3866   -4.8277   14.0170 C   0  0  0  0  0  0  0  0  0  0  0  0
   11.1467   -4.7554   13.0406 O   0  0  0  0  0  0  0  0  0  0  0  0
    8.7281   -5.8154   14.0085 N   0  0  0  0  0  0  0  0  0  0  0  0
    7.7099   -6.8569   12.4202 C   0  0  0  0  0  0  0  0  0  0  0  0
    6.4538   -6.5653   10.7412 C   0  0  0  0  0  0  0  0  0  0  0  0
    5.3760   -7.4934    9.7561 N   0  0  0  0  0  0  0  0  0  0  0  0
    3.8925   -7.8321    9.9373 C   0  0  0  0  0  0  0  0  0  0  0  0
    3.1021   -7.4634   10.7724 O   0  0  0  0  0  0  0  0  0  0  0  0
    3.3505   -8.8990    8.8712 C   0  0  0  0  0  0  0  0  0  0  0  0
    2.3738  -10.0432    9.3591 C   0  0  0  0  0  0  0  0  0  0  0  0
    2.2723  -11.3884    9.0040 C   0  0  0  0  0  0  0  0  0  0  0  0
    1.1229  -11.8983    9.6530 C   0  0  0  0  0  0  0  0  0  0  0  0
    0.5120  -10.9615   10.3765 N   0  0  0  0  0  0  0  0  0  0  0  0
    1.3033   -9.8669   10.2135 N   0  0  0  0  0  0  0  0  0  0  0  0
    7.3598   -6.1098    9.5263 C   0  0  0  0  0  0  0  0  0  0  0  0
    6.7694   -5.0113    8.6620 C   0  0  0  0  0  0  0  0  0  0  0  0
    6.6142   -3.8697    9.4942 O   0  0  0  0  0  0  0  0  0  0  0  0
    5.4382   -3.9601   10.2761 C   0  0  0  0  0  0  0  0  0  0  0  0
    5.2234   -5.3356   10.9404 C   0  0  0  0  0  0  0  0  0  0  0  0
   11.9874   -0.8330   14.8154 H   0  0  0  0  0  0  0  0  0  0  0  0
   13.6550   -1.3629   14.9171 H   0  0  0  0  0  0  0  0  0  0  0  0
   12.5885   -1.5861   16.3043 H   0  0  0  0  0  0  0  0  0  0  0  0
   13.1532   -3.6031   14.8986 H   0  0  0  0  0  0  0  0  0  0  0  0
   12.2400   -2.9078   13.5565 H   0  0  0  0  0  0  0  0  0  0  0  0
   12.1225   -3.5000   17.0554 H   0  0  0  0  0  0  0  0  0  0  0  0
   12.4026   -5.0499   16.3033 H   0  0  0  0  0  0  0  0  0  0  0  0
   10.9954   -4.7569   17.2355 H   0  0  0  0  0  0  0  0  0  0  0  0
   10.0953   -1.9519   16.0572 H   0  0  0  0  0  0  0  0  0  0  0  0
    8.9539   -2.8532   14.9787 H   0  0  0  0  0  0  0  0  0  0  0  0
   10.2556   -1.9315   14.3709 H   0  0  0  0  0  0  0  0  0  0  0  0
    8.3195   -5.8020   14.9594 H   0  0  0  0  0  0  0  0  0  0  0  0
    8.3065   -7.6297   11.9055 H   0  0  0  0  0  0  0  0  0  0  0  0
    6.9514   -7.4958   12.9305 H   0  0  0  0  0  0  0  0  0  0  0  0
    5.7142   -7.9153    8.8966 H   0  0  0  0  0  0  0  0  0  0  0  0
    2.7970   -8.3145    8.1246 H   0  0  0  0  0  0  0  0  0  0  0  0
    4.1838   -9.3704    8.3429 H   0  0  0  0  0  0  0  0  0  0  0  0
    2.9319  -11.9238    8.3358 H   0  0  0  0  0  0  0  0  0  0  0  0
    0.7110  -12.8983    9.6166 H   0  0  0  0  0  0  0  0  0  0  0  0
    1.0932   -9.0303   10.7528 H   0  0  0  0  0  0  0  0  0  0  0  0
    7.6744   -6.9661    8.9203 H   0  0  0  0  0  0  0  0  0  0  0  0
    8.2368   -5.6344    9.8772 H   0  0  0  0  0  0  0  0  0  0  0  0
    5.8280   -5.2917    8.1762 H   0  0  0  0  0  0  0  0  0  0  0  0
    7.4802   -4.7464    7.8719 H   0  0  0  0  0  0  0  0  0  0  0  0
    4.5857   -3.7336    9.6215 H   0  0  0  0  0  0  0  0  0  0  0  0
    5.4398   -3.1526   11.0137 H   0  0  0  0  0  0  0  0  0  0  0  0
    4.8977   -5.2709   11.9838 H   0  0  0  0  0  0  0  0  0  0  0  0
    4.2996   -5.6376   10.4566 H   0  0  0  0  0  0  0  0  0  0  0  0
  1  2  1  0
  2  3  1  0
  3  4  1  0
  3  5  1  0
  3  6  1  0
  6  7  2  0
  6  8  1  0
  8  9  1  0
  9 10  1  0
 10 11  1  0
 11 12  1  0
 12 13  2  0
 12 14  1  0
 14 15  1  0
 15 16  2  0
 16 17  1  0
 17 18  2  0
 18 19  1  0
 10 20  1  0
 20 21  1  0
 21 22  1  0
 22 23  1  0
 23 24  1  0
 24 10  1  0
 19 15  1  0
  1 25  1  0
  1 26  1  0
  1 27  1  0
  2 28  1  0
  2 29  1  0
  4 30  1  0
  4 31  1  0
  4 32  1  0
  5 33  1  0
  5 34  1  0
  5 35  1  0
  8 36  1  0
  9 37  1  0
  9 38  1  0
 11 39  1  0
 14 40  1  0
 14 41  1  0
 16 42  1  0
 17 43  1  0
 19 44  1  0
 20 45  1  0
 20 46  1  0
 21 47  1  0
 21 48  1  0
 23 49  1  0
 23 50  1  0
 24 51  1  0
 24 52  1  0
M  END
>  <Energy>  (547) 
533.31173695534358

>  <compound_id>  (547) 
90262

>  <target_id>  (547) 
1

>  <reference_id>  (547) 
81

>  <inspiration_ids>  (547) 
[112, 81]

>  <energy_score>  (547) 
447.2358173358161

>  <distance_score>  (547) 
16.804843894636353

>  <path>  (547) 
/opt/xchem-fragalysis-2/maxwin/BulkDock/SCRATCH/511016/C90262-P81/C90262-P81.minimised.mol

>  <scratch_subdir>  (547) 
/opt/xchem-fragalysis-2/maxwin/BulkDock/SCRATCH/511016/C90262-P81

>  <fragmenstein_runtime>  (547) 
20.123344898223877

>  <fragmenstein_outcome>  (547) 
too moved

>  <fragmenstein_mode>  (547) 
expansion

>  <fragmenstein_error>  (547) 


$$$$
C90269-P112
     RDKit          3D

 50 51  0  0  0  0  0  0  0  0999 V2000
   -2.6551  -14.0975   16.6230 C   0  0  0  0  0  0  0  0  0  0  0  0
   -2.5320  -14.8487   14.8398 C   0  0  0  0  0  0  0  0  0  0  0  0
   -3.7429  -16.4606   14.6719 C   0  0  0  0  0  0  0  0  0  0  0  0
   -3.4517  -17.8828   14.0571 N   0  0  0  0  0  0  0  0  0  0  0  0
   -4.6252  -19.1531   13.1251 C   0  0  0  0  0  0  0  0  0  0  0  0
   -5.8201  -18.9231   12.8951 O   0  0  0  0  0  0  0  0  0  0  0  0
   -4.1651  -20.4808   12.4667 C   0  0  0  0  0  0  0  0  0  0  0  0
   -5.1753  -21.4229   11.7503 C   0  0  0  0  0  0  0  0  0  0  0  0
   -4.8759  -22.5123   10.9302 C   0  0  0  0  0  0  0  0  0  0  0  0
   -5.8066  -23.5064   11.3043 C   0  0  0  0  0  0  0  0  0  0  0  0
   -6.7625  -23.0142   12.1083 N   0  0  0  0  0  0  0  0  0  0  0  0
   -6.4241  -21.6950   12.2550 N   0  0  0  0  0  0  0  0  0  0  0  0
   -1.2611  -13.6793   13.7689 N   0  0  0  0  0  0  0  0  0  0  0  0
   -0.4739  -13.9268   12.3038 C   0  0  0  0  0  0  0  0  0  0  0  0
   -0.4315  -14.9090   11.5967 O   0  0  0  0  0  0  0  0  0  0  0  0
    0.2744  -12.1960   11.8944 C   0  0  0  0  0  0  0  0  0  0  0  0
    1.4622  -11.3444   11.1844 O   0  0  0  0  0  0  0  0  0  0  0  0
    1.5352  -10.0564   10.3779 C   0  0  0  0  0  0  0  0  0  0  0  0
    2.4602   -9.7280    9.1060 C   0  0  0  0  0  0  0  0  0  0  0  0
    3.7963   -9.0990    9.4306 C   0  0  0  0  0  0  0  0  0  0  0  0
    4.3767   -8.1495    8.3945 C   0  0  0  0  0  0  0  0  0  0  0  0
    3.5760   -6.9726    8.3001 O   0  0  0  0  0  0  0  0  0  0  0  0
    2.1813   -7.2234    8.4942 C   0  0  0  0  0  0  0  0  0  0  0  0
    1.7569   -8.6742    8.1779 C   0  0  0  0  0  0  0  0  0  0  0  0
   -3.6666  -14.2718   16.8188 H   0  0  0  0  0  0  0  0  0  0  0  0
   -2.2252  -13.1383   16.8377 H   0  0  0  0  0  0  0  0  0  0  0  0
   -2.1466  -14.5877   17.4642 H   0  0  0  0  0  0  0  0  0  0  0  0
   -1.7421  -15.5592   14.7486 H   0  0  0  0  0  0  0  0  0  0  0  0
   -4.7203  -16.3066   14.2121 H   0  0  0  0  0  0  0  0  0  0  0  0
   -3.8721  -16.6410   15.7471 H   0  0  0  0  0  0  0  0  0  0  0  0
   -2.5457  -18.3117   14.2107 H   0  0  0  0  0  0  0  0  0  0  0  0
   -3.6727  -20.1781   11.5680 H   0  0  0  0  0  0  0  0  0  0  0  0
   -3.5352  -21.0164   13.1351 H   0  0  0  0  0  0  0  0  0  0  0  0
   -3.9744  -22.6845   10.3651 H   0  0  0  0  0  0  0  0  0  0  0  0
   -5.8401  -24.5473   11.0128 H   0  0  0  0  0  0  0  0  0  0  0  0
   -6.9946  -21.1117   12.8524 H   0  0  0  0  0  0  0  0  0  0  0  0
   -1.0248  -12.7869   14.1273 H   0  0  0  0  0  0  0  0  0  0  0  0
    0.5603  -12.0421   12.9234 H   0  0  0  0  0  0  0  0  0  0  0  0
   -0.5802  -11.5550   11.7070 H   0  0  0  0  0  0  0  0  0  0  0  0
    0.6102  -10.0489    9.8235 H   0  0  0  0  0  0  0  0  0  0  0  0
    1.5603   -9.1765   10.9836 H   0  0  0  0  0  0  0  0  0  0  0  0
    2.6171  -10.6503    8.5349 H   0  0  0  0  0  0  0  0  0  0  0  0
    4.4887   -9.9126    9.5967 H   0  0  0  0  0  0  0  0  0  0  0  0
    3.6040   -8.4686   10.2992 H   0  0  0  0  0  0  0  0  0  0  0  0
    5.3859   -7.8376    8.6811 H   0  0  0  0  0  0  0  0  0  0  0  0
    4.4416   -8.6205    7.4075 H   0  0  0  0  0  0  0  0  0  0  0  0
    1.6355   -6.5311    7.8448 H   0  0  0  0  0  0  0  0  0  0  0  0
    1.9228   -6.9638    9.5273 H   0  0  0  0  0  0  0  0  0  0  0  0
    0.6670   -8.7470    8.2212 H   0  0  0  0  0  0  0  0  0  0  0  0
    2.0412   -8.8983    7.1411 H   0  0  0  0  0  0  0  0  0  0  0  0
  1  2  1  0
  2  3  1  0
  3  4  1  0
  4  5  1  0
  5  6  2  0
  5  7  1  0
  7  8  1  0
  8  9  2  0
  9 10  1  0
 10 11  2  0
 11 12  1  0
  2 13  1  0
 13 14  1  0
 14 15  2  0
 14 16  1  0
 16 17  1  0
 17 18  1  0
 18 19  1  0
 19 20  1  0
 20 21  1  0
 21 22  1  0
 22 23  1  0
 23 24  1  0
 12  8  1  0
 24 19  1  0
  1 25  1  0
  1 26  1  0
  1 27  1  0
  2 28  1  0
  3 29  1  0
  3 30  1  0
  4 31  1  0
  7 32  1  0
  7 33  1  0
  9 34  1  0
 10 35  1  0
 12 36  1  0
 13 37  1  0
 16 38  1  0
 16 39  1  0
 18 40  1  0
 18 41  1  0
 19 42  1  0
 20 43  1  0
 20 44  1  0
 21 45  1  0
 21 46  1  0
 23 47  1  0
 23 48  1  0
 24 49  1  0
 24 50  1  0
M  END
>  <Energy>  (548) 
562.79981264644618

>  <compound_id>  (548) 
90269

>  <target_id>  (548) 
1

>  <reference_id>  (548) 
112

>  <inspiration_ids>  (548) 
[112, 81]

>  <energy_score>  (548) 
441.5947994368712

>  <distance_score>  (548) 
10.025868807232856

>  <path>  (548) 
/opt/xchem-fragalysis-2/maxwin/BulkDock/SCRATCH/511016/C90269-P112/C90269-P112.minimised.mol

>  <scratch_subdir>  (548) 
/opt/xchem-fragalysis-2/maxwin/BulkDock/SCRATCH/511016/C90269-P112

>  <fragmenstein_runtime>  (548) 
29.99492073059082

>  <fragmenstein_outcome>  (548) 
too moved

>  <fragmenstein_mode>  (548) 
expansion

>  <fragmenstein_error>  (548) 


$$$$
C90269-P81
     RDKit          3D

 50 51  0  0  0  0  0  0  0  0999 V2000
    2.3713  -14.5409   18.4509 C   0  0  0  0  0  0  0  0  0  0  0  0
    2.8115  -15.3260   17.3606 C   0  0  0  0  0  0  0  0  0  0  0  0
    2.4112  -17.2055   16.2808 C   0  0  0  0  0  0  0  0  0  0  0  0
    1.0374  -18.5227   15.5457 N   0  0  0  0  0  0  0  0  0  0  0  0
    0.4601  -18.8759   13.7827 C   0  0  0  0  0  0  0  0  0  0  0  0
    0.9363  -18.4109   12.7317 O   0  0  0  0  0  0  0  0  0  0  0  0
   -1.3050  -19.9680   13.3516 C   0  0  0  0  0  0  0  0  0  0  0  0
   -3.2795  -20.2818   12.6004 C   0  0  0  0  0  0  0  0  0  0  0  0
   -4.4700  -19.8658   12.0660 C   0  0  0  0  0  0  0  0  0  0  0  0
   -4.3745  -20.3124   10.6321 C   0  0  0  0  0  0  0  0  0  0  0  0
   -4.1714  -21.6182   10.5561 N   0  0  0  0  0  0  0  0  0  0  0  0
   -3.8796  -21.6939   11.8158 N   0  0  0  0  0  0  0  0  0  0  0  0
    4.2683  -13.9518   17.1775 N   0  0  0  0  0  0  0  0  0  0  0  0
    4.4147  -12.1504   15.8813 C   0  0  0  0  0  0  0  0  0  0  0  0
    3.3834  -11.9719   15.3754 O   0  0  0  0  0  0  0  0  0  0  0  0
    5.8580  -10.6788   14.8612 C   0  0  0  0  0  0  0  0  0  0  0  0
    7.9100  -10.0335   15.3431 O   0  0  0  0  0  0  0  0  0  0  0  0
    9.6946   -8.8114   15.5505 C   0  0  0  0  0  0  0  0  0  0  0  0
   10.7161   -6.8038   15.4915 C   0  0  0  0  0  0  0  0  0  0  0  0
   10.6248   -5.0100   14.5087 C   0  0  0  0  0  0  0  0  0  0  0  0
   10.2455   -3.5534   14.9503 C   0  0  0  0  0  0  0  0  0  0  0  0
   10.9872   -3.0837   16.0643 O   0  0  0  0  0  0  0  0  0  0  0  0
   12.1165   -3.9089   16.2810 C   0  0  0  0  0  0  0  0  0  0  0  0
   11.6822   -5.4123   16.4607 C   0  0  0  0  0  0  0  0  0  0  0  0
    1.5778  -13.9103   18.0487 H   0  0  0  0  0  0  0  0  0  0  0  0
    2.3082  -14.8531   19.4782 H   0  0  0  0  0  0  0  0  0  0  0  0
    3.1834  -13.8731   18.6523 H   0  0  0  0  0  0  0  0  0  0  0  0
    2.1214  -14.9172   16.6434 H   0  0  0  0  0  0  0  0  0  0  0  0
    3.2734  -17.5174   15.6531 H   0  0  0  0  0  0  0  0  0  0  0  0
    2.1958  -17.7897   17.1781 H   0  0  0  0  0  0  0  0  0  0  0  0
    0.5233  -19.1088   16.1996 H   0  0  0  0  0  0  0  0  0  0  0  0
   -1.9482  -20.6272   13.8888 H   0  0  0  0  0  0  0  0  0  0  0  0
   -1.7396  -19.1347   14.0953 H   0  0  0  0  0  0  0  0  0  0  0  0
   -5.1071  -19.1143   12.4696 H   0  0  0  0  0  0  0  0  0  0  0  0
   -4.5720  -19.8642    9.6681 H   0  0  0  0  0  0  0  0  0  0  0  0
   -3.7602  -22.6127   12.2259 H   0  0  0  0  0  0  0  0  0  0  0  0
    5.1496  -14.1721   17.5388 H   0  0  0  0  0  0  0  0  0  0  0  0
    5.2723   -9.9066   14.3141 H   0  0  0  0  0  0  0  0  0  0  0  0
    5.9565  -11.1522   13.8265 H   0  0  0  0  0  0  0  0  0  0  0  0
   10.3581   -9.6596   15.3087 H   0  0  0  0  0  0  0  0  0  0  0  0
    9.5313   -8.0397   14.7972 H   0  0  0  0  0  0  0  0  0  0  0  0
   11.8075   -7.1166   15.6948 H   0  0  0  0  0  0  0  0  0  0  0  0
   11.5953   -4.4894   14.3969 H   0  0  0  0  0  0  0  0  0  0  0  0
   10.7805   -5.0852   13.4389 H   0  0  0  0  0  0  0  0  0  0  0  0
   10.5727   -2.8727   14.1526 H   0  0  0  0  0  0  0  0  0  0  0  0
    9.1733   -3.3560   14.9930 H   0  0  0  0  0  0  0  0  0  0  0  0
   12.5756   -3.5734   17.2206 H   0  0  0  0  0  0  0  0  0  0  0  0
   12.8974   -3.7371   15.5308 H   0  0  0  0  0  0  0  0  0  0  0  0
   11.0854   -5.1473   17.3311 H   0  0  0  0  0  0  0  0  0  0  0  0
   12.7033   -5.8074   16.5872 H   0  0  0  0  0  0  0  0  0  0  0  0
  1  2  1  0
  2  3  1  0
  3  4  1  0
  4  5  1  0
  5  6  2  0
  5  7  1  0
  7  8  1  0
  8  9  2  0
  9 10  1  0
 10 11  2  0
 11 12  1  0
  2 13  1  0
 13 14  1  0
 14 15  2  0
 14 16  1  0
 16 17  1  0
 17 18  1  0
 18 19  1  0
 19 20  1  0
 20 21  1  0
 21 22  1  0
 22 23  1  0
 23 24  1  0
 12  8  1  0
 24 19  1  0
  1 25  1  0
  1 26  1  0
  1 27  1  0
  2 28  1  0
  3 29  1  0
  3 30  1  0
  4 31  1  0
  7 32  1  0
  7 33  1  0
  9 34  1  0
 10 35  1  0
 12 36  1  0
 13 37  1  0
 16 38  1  0
 16 39  1  0
 18 40  1  0
 18 41  1  0
 19 42  1  0
 20 43  1  0
 20 44  1  0
 21 45  1  0
 21 46  1  0
 23 47  1  0
 23 48  1  0
 24 49  1  0
 24 50  1  0
M  END
>  <Energy>  (549) 
2596.0606284947612

>  <compound_id>  (549) 
90269

>  <target_id>  (549) 
1

>  <reference_id>  (549) 
81

>  <inspiration_ids>  (549) 
[112, 81]

>  <energy_score>  (549) 
2474.8556152852198

>  <distance_score>  (549) 
8.171154754489706

>  <path>  (549) 
/opt/xchem-fragalysis-2/maxwin/BulkDock/SCRATCH/511016/C90269-P81/C90269-P81.minimised.mol

>  <scratch_subdir>  (549) 
/opt/xchem-fragalysis-2/maxwin/BulkDock/SCRATCH/511016/C90269-P81

>  <fragmenstein_runtime>  (549) 
21.75770115852356

>  <fragmenstein_outcome>  (549) 
too moved

>  <fragmenstein_mode>  (549) 
expansion

>  <fragmenstein_error>  (549) 


$$$$
C90270-P112
     RDKit          3D

 45 47  0  0  0  0  0  0  0  0999 V2000
   -5.7869  -21.8405   11.4089 O   0  0  0  0  0  0  0  0  0  0  0  0
   -5.4694  -20.5275   11.8350 C   0  0  0  0  0  0  0  0  0  0  0  0
   -6.6706  -19.5924   11.8136 C   0  0  0  0  0  0  0  0  0  0  0  0
   -8.1891  -20.4954   11.8170 C   0  0  0  0  0  0  0  0  0  0  0  0
   -8.6426  -22.0325   12.7209 C   0  0  0  0  0  0  0  0  0  0  0  0
   -8.5643  -23.6830   12.5308 C   0  0  0  0  0  0  0  0  0  0  0  0
   -9.5852  -24.6550   11.9387 C   0  0  0  0  0  0  0  0  0  0  0  0
  -10.8417  -24.3458   12.5059 O   0  0  0  0  0  0  0  0  0  0  0  0
  -11.0544  -22.9536   12.3652 C   0  0  0  0  0  0  0  0  0  0  0  0
  -10.1015  -22.0336   13.1771 C   0  0  0  0  0  0  0  0  0  0  0  0
   -6.2715  -18.0619   12.4632 N   0  0  0  0  0  0  0  0  0  0  0  0
   -5.4190  -18.1011   13.7807 C   0  0  0  0  0  0  0  0  0  0  0  0
   -4.6181  -16.9545   14.8041 C   0  0  0  0  0  0  0  0  0  0  0  0
   -4.4391  -16.5978   16.1443 C   0  0  0  0  0  0  0  0  0  0  0  0
   -3.4568  -15.2463   16.2003 C   0  0  0  0  0  0  0  0  0  0  0  0
   -2.6585  -14.8950   14.8672 C   0  0  0  0  0  0  0  0  0  0  0  0
   -1.2536  -13.8761   13.8497 C   0  0  0  0  0  0  0  0  0  0  0  0
   -0.5836  -12.5102   13.2578 C   0  0  0  0  0  0  0  0  0  0  0  0
    0.2491  -12.5374   12.1806 C   0  0  0  0  0  0  0  0  0  0  0  0
    0.5708  -13.7765   12.0015 N   0  0  0  0  0  0  0  0  0  0  0  0
   -0.5167  -14.3915   12.4256 N   0  0  0  0  0  0  0  0  0  0  0  0
   -3.4407  -16.4224   14.3252 O   0  0  0  0  0  0  0  0  0  0  0  0
   -5.2132  -22.4116   11.9742 H   0  0  0  0  0  0  0  0  0  0  0  0
   -4.6888  -20.1500   11.1709 H   0  0  0  0  0  0  0  0  0  0  0  0
   -5.0682  -20.5628   12.8416 H   0  0  0  0  0  0  0  0  0  0  0  0
   -6.7287  -19.2259   10.7789 H   0  0  0  0  0  0  0  0  0  0  0  0
   -8.4928  -20.5341   10.7745 H   0  0  0  0  0  0  0  0  0  0  0  0
   -8.9203  -19.7154   12.0642 H   0  0  0  0  0  0  0  0  0  0  0  0
   -7.9918  -21.9023   13.5943 H   0  0  0  0  0  0  0  0  0  0  0  0
   -7.5506  -24.0012   12.2478 H   0  0  0  0  0  0  0  0  0  0  0  0
   -8.8835  -23.9934   13.5349 H   0  0  0  0  0  0  0  0  0  0  0  0
   -9.6229  -24.6932   10.8581 H   0  0  0  0  0  0  0  0  0  0  0  0
   -9.3359  -25.6773   12.2503 H   0  0  0  0  0  0  0  0  0  0  0  0
  -10.9158  -22.7509   11.3068 H   0  0  0  0  0  0  0  0  0  0  0  0
  -12.0941  -22.8143   12.6531 H   0  0  0  0  0  0  0  0  0  0  0  0
  -10.0507  -22.4305   14.1937 H   0  0  0  0  0  0  0  0  0  0  0  0
  -10.4670  -21.0168   13.2495 H   0  0  0  0  0  0  0  0  0  0  0  0
   -7.1360  -17.5372   12.5962 H   0  0  0  0  0  0  0  0  0  0  0  0
   -5.6796  -18.9010   14.4556 H   0  0  0  0  0  0  0  0  0  0  0  0
   -4.6069  -18.4705   13.1894 H   0  0  0  0  0  0  0  0  0  0  0  0
   -4.9993  -16.9306   17.0077 H   0  0  0  0  0  0  0  0  0  0  0  0
   -3.2133  -14.5553   16.9861 H   0  0  0  0  0  0  0  0  0  0  0  0
   -0.8832  -11.5287   13.5429 H   0  0  0  0  0  0  0  0  0  0  0  0
    0.6559  -11.7028   11.6310 H   0  0  0  0  0  0  0  0  0  0  0  0
   -0.7406  -15.2408   11.9451 H   0  0  0  0  0  0  0  0  0  0  0  0
  1  2  1  0
  2  3  1  0
  3  4  1  0
  4  5  1  0
  5  6  1  0
  6  7  1  0
  7  8  1  0
  8  9  1  0
  9 10  1  0
  3 11  1  0
 11 12  1  0
 12 13  1  0
 13 14  2  0
 14 15  1  0
 15 16  2  0
 16 17  1  0
 17 18  2  0
 18 19  1  0
 19 20  2  0
 20 21  1  0
 16 22  1  0
 10  5  1  0
 22 13  1  0
 21 17  1  0
  1 23  1  0
  2 24  1  0
  2 25  1  0
  3 26  1  0
  4 27  1  0
  4 28  1  0
  5 29  1  0
  6 30  1  0
  6 31  1  0
  7 32  1  0
  7 33  1  0
  9 34  1  0
  9 35  1  0
 10 36  1  0
 10 37  1  0
 11 38  1  0
 12 39  1  0
 12 40  1  0
 14 41  1  0
 15 42  1  0
 18 43  1  0
 19 44  1  0
 21 45  1  0
M  END
>  <Energy>  (550) 
557.55418295798245

>  <compound_id>  (550) 
90270

>  <target_id>  (550) 
1

>  <reference_id>  (550) 
112

>  <inspiration_ids>  (550) 
[112, 81]

>  <energy_score>  (550) 
461.5920973982439

>  <distance_score>  (550) 
11.413686093316088

>  <path>  (550) 
/opt/xchem-fragalysis-2/maxwin/BulkDock/SCRATCH/511016/C90270-P112/C90270-P112.minimised.mol

>  <scratch_subdir>  (550) 
/opt/xchem-fragalysis-2/maxwin/BulkDock/SCRATCH/511016/C90270-P112

>  <fragmenstein_runtime>  (550) 
15.622192144393921

>  <fragmenstein_outcome>  (550) 
too moved

>  <fragmenstein_mode>  (550) 
expansion

>  <fragmenstein_error>  (550) 


$$$$
C90270-P81
     RDKit          3D

 45 47  0  0  0  0  0  0  0  0999 V2000
   -5.0805  -23.4790   19.9897 O   0  0  0  0  0  0  0  0  0  0  0  0
   -5.3430  -24.8790   20.1080 C   0  0  0  0  0  0  0  0  0  0  0  0
   -5.6150  -25.6195   18.7408 C   0  0  0  0  0  0  0  0  0  0  0  0
   -6.8226  -24.4595   17.9348 C   0  0  0  0  0  0  0  0  0  0  0  0
   -8.2111  -24.7039   16.4139 C   0  0  0  0  0  0  0  0  0  0  0  0
   -9.2498  -26.1657   15.6643 C   0  0  0  0  0  0  0  0  0  0  0  0
   -9.8781  -26.0671   14.2751 C   0  0  0  0  0  0  0  0  0  0  0  0
  -10.6829  -24.9192   14.1527 O   0  0  0  0  0  0  0  0  0  0  0  0
   -9.8608  -23.7969   13.9154 C   0  0  0  0  0  0  0  0  0  0  0  0
   -8.9848  -23.3746   15.1476 C   0  0  0  0  0  0  0  0  0  0  0  0
   -4.2989  -26.3118   18.2338 N   0  0  0  0  0  0  0  0  0  0  0  0
   -2.8713  -25.8233   18.5773 C   0  0  0  0  0  0  0  0  0  0  0  0
   -1.7292  -25.5160   17.4643 C   0  0  0  0  0  0  0  0  0  0  0  0
   -1.4337  -26.0494   16.2231 C   0  0  0  0  0  0  0  0  0  0  0  0
   -0.3132  -25.3377   15.6679 C   0  0  0  0  0  0  0  0  0  0  0  0
    0.1628  -24.3899   16.5717 C   0  0  0  0  0  0  0  0  0  0  0  0
    1.2829  -23.4122   16.3335 C   0  0  0  0  0  0  0  0  0  0  0  0
    1.6060  -22.6763   15.1880 C   0  0  0  0  0  0  0  0  0  0  0  0
    2.6556  -21.7916   15.5382 C   0  0  0  0  0  0  0  0  0  0  0  0
    3.0784  -22.0103   16.7815 N   0  0  0  0  0  0  0  0  0  0  0  0
    2.2306  -22.9667   17.2474 N   0  0  0  0  0  0  0  0  0  0  0  0
   -0.7134  -24.5355   17.7097 O   0  0  0  0  0  0  0  0  0  0  0  0
   -4.2193  -23.3680   19.5575 H   0  0  0  0  0  0  0  0  0  0  0  0
   -4.5435  -25.3533   20.6867 H   0  0  0  0  0  0  0  0  0  0  0  0
   -6.2248  -24.9194   20.7436 H   0  0  0  0  0  0  0  0  0  0  0  0
   -6.1829  -26.5040   19.0068 H   0  0  0  0  0  0  0  0  0  0  0  0
   -7.3809  -24.6156   18.8609 H   0  0  0  0  0  0  0  0  0  0  0  0
   -6.3911  -23.4419   17.9612 H   0  0  0  0  0  0  0  0  0  0  0  0
   -7.3332  -25.7315   15.8498 H   0  0  0  0  0  0  0  0  0  0  0  0
  -10.1159  -26.4071   16.2884 H   0  0  0  0  0  0  0  0  0  0  0  0
   -8.6176  -27.0667   15.6195 H   0  0  0  0  0  0  0  0  0  0  0  0
   -9.1442  -26.1394   13.4670 H   0  0  0  0  0  0  0  0  0  0  0  0
  -10.5375  -26.9331   14.1394 H   0  0  0  0  0  0  0  0  0  0  0  0
  -10.4976  -22.9557   13.6314 H   0  0  0  0  0  0  0  0  0  0  0  0
   -9.3049  -23.9749   12.9890 H   0  0  0  0  0  0  0  0  0  0  0  0
   -9.6485  -22.6893   15.6683 H   0  0  0  0  0  0  0  0  0  0  0  0
   -8.2371  -22.6425   14.8252 H   0  0  0  0  0  0  0  0  0  0  0  0
   -4.3946  -26.7155   17.3067 H   0  0  0  0  0  0  0  0  0  0  0  0
   -2.4381  -26.6163   19.1994 H   0  0  0  0  0  0  0  0  0  0  0  0
   -2.9070  -24.9253   19.1977 H   0  0  0  0  0  0  0  0  0  0  0  0
   -1.9885  -26.8392   15.7349 H   0  0  0  0  0  0  0  0  0  0  0  0
    0.1111  -25.5095   14.6869 H   0  0  0  0  0  0  0  0  0  0  0  0
    1.0884  -22.7096   14.2391 H   0  0  0  0  0  0  0  0  0  0  0  0
    3.1216  -21.0222   14.9359 H   0  0  0  0  0  0  0  0  0  0  0  0
    2.3230  -23.2473   18.2169 H   0  0  0  0  0  0  0  0  0  0  0  0
  1  2  1  0
  2  3  1  0
  3  4  1  0
  4  5  1  0
  5  6  1  0
  6  7  1  0
  7  8  1  0
  8  9  1  0
  9 10  1  0
  3 11  1  0
 11 12  1  0
 12 13  1  0
 13 14  2  0
 14 15  1  0
 15 16  2  0
 16 17  1  0
 17 18  2  0
 18 19  1  0
 19 20  2  0
 20 21  1  0
 16 22  1  0
 10  5  1  0
 22 13  1  0
 21 17  1  0
  1 23  1  0
  2 24  1  0
  2 25  1  0
  3 26  1  0
  4 27  1  0
  4 28  1  0
  5 29  1  0
  6 30  1  0
  6 31  1  0
  7 32  1  0
  7 33  1  0
  9 34  1  0
  9 35  1  0
 10 36  1  0
 10 37  1  0
 11 38  1  0
 12 39  1  0
 12 40  1  0
 14 41  1  0
 15 42  1  0
 18 43  1  0
 19 44  1  0
 21 45  1  0
M  END
>  <Energy>  (551) 
388.91041783072745

>  <compound_id>  (551) 
90270

>  <target_id>  (551) 
1

>  <reference_id>  (551) 
81

>  <inspiration_ids>  (551) 
[112, 81]

>  <energy_score>  (551) 
292.9483322709819

>  <distance_score>  (551) 
14.549335874157274

>  <path>  (551) 
/opt/xchem-fragalysis-2/maxwin/BulkDock/SCRATCH/511016/C90270-P81/C90270-P81.minimised.mol

>  <scratch_subdir>  (551) 
/opt/xchem-fragalysis-2/maxwin/BulkDock/SCRATCH/511016/C90270-P81

>  <fragmenstein_runtime>  (551) 
17.290126085281372

>  <fragmenstein_outcome>  (551) 
too moved

>  <fragmenstein_mode>  (551) 
expansion

>  <fragmenstein_error>  (551) 


$$$$
C90272-P112
     RDKit          3D

 29 30  0  0  0  0  0  0  0  0999 V2000
    0.9516  -11.8443    9.9807 N   0  0  0  0  0  0  0  0  0  0  0  0
    2.0725  -12.7304    9.6833 C   0  0  0  0  0  0  0  0  0  0  0  0
    3.0933  -11.9734    8.8308 C   0  0  0  0  0  0  0  0  0  0  0  0
    4.1700  -12.8931    8.2808 C   0  0  0  0  0  0  0  0  0  0  0  0
    4.3267  -13.9994    9.1634 O   0  0  0  0  0  0  0  0  0  0  0  0
    3.1682  -14.8654    9.1488 C   0  0  0  0  0  0  0  0  0  0  0  0
    1.8001  -14.1191    9.0524 C   0  0  0  0  0  0  0  0  0  0  0  0
    0.6388  -14.9089    9.5312 N   0  0  0  0  0  0  0  0  0  0  0  0
    0.2866  -15.3663   10.8471 C   0  0  0  0  0  0  0  0  0  0  0  0
    0.7996  -15.1597   11.9064 O   0  0  0  0  0  0  0  0  0  0  0  0
   -0.8992  -16.2662   10.8532 C   0  0  0  0  0  0  0  0  0  0  0  0
   -1.7042  -16.8621    9.8883 C   0  0  0  0  0  0  0  0  0  0  0  0
   -2.6640  -17.6356   10.5857 C   0  0  0  0  0  0  0  0  0  0  0  0
   -2.5124  -17.5460   11.9041 N   0  0  0  0  0  0  0  0  0  0  0  0
   -1.4399  -16.7379   12.0400 N   0  0  0  0  0  0  0  0  0  0  0  0
    0.3038  -12.3434   10.5928 H   0  0  0  0  0  0  0  0  0  0  0  0
    1.2844  -11.0491   10.5302 H   0  0  0  0  0  0  0  0  0  0  0  0
    2.5474  -12.9542   10.6248 H   0  0  0  0  0  0  0  0  0  0  0  0
    3.5392  -11.2271    9.4821 H   0  0  0  0  0  0  0  0  0  0  0  0
    2.6206  -11.4489    7.9926 H   0  0  0  0  0  0  0  0  0  0  0  0
    3.9001  -13.2644    7.2842 H   0  0  0  0  0  0  0  0  0  0  0  0
    5.1245  -12.3730    8.1689 H   0  0  0  0  0  0  0  0  0  0  0  0
    3.2685  -15.5639    8.3098 H   0  0  0  0  0  0  0  0  0  0  0  0
    3.2142  -15.4655   10.0637 H   0  0  0  0  0  0  0  0  0  0  0  0
    1.5756  -13.9572    7.9893 H   0  0  0  0  0  0  0  0  0  0  0  0
    0.0299  -15.3484    8.8563 H   0  0  0  0  0  0  0  0  0  0  0  0
   -1.6211  -16.7708    8.8153 H   0  0  0  0  0  0  0  0  0  0  0  0
   -3.4600  -18.2497   10.1843 H   0  0  0  0  0  0  0  0  0  0  0  0
   -1.0992  -16.5268   12.9732 H   0  0  0  0  0  0  0  0  0  0  0  0
  1  2  1  0
  2  3  1  0
  3  4  1  0
  4  5  1  0
  5  6  1  0
  6  7  1  0
  7  8  1  0
  8  9  1  0
  9 10  2  0
  9 11  1  0
 11 12  2  0
 12 13  1  0
 13 14  2  0
 14 15  1  0
  7  2  1  0
 15 11  1  0
  1 16  1  0
  1 17  1  0
  2 18  1  0
  3 19  1  0
  3 20  1  0
  4 21  1  0
  4 22  1  0
  6 23  1  0
  6 24  1  0
  7 25  1  0
  8 26  1  0
 12 27  1  0
 13 28  1  0
 15 29  1  0
M  END
>  <Energy>  (552) 
16.002075191407119

>  <compound_id>  (552) 
90272

>  <target_id>  (552) 
1

>  <reference_id>  (552) 
112

>  <inspiration_ids>  (552) 
[112, 81]

>  <energy_score>  (552) 
-15.347830183611556

>  <distance_score>  (552) 
14.719012047372647

>  <path>  (552) 
/opt/xchem-fragalysis-2/maxwin/BulkDock/SCRATCH/511016/C90272-P112/C90272-P112.minimised.mol

>  <scratch_subdir>  (552) 
/opt/xchem-fragalysis-2/maxwin/BulkDock/SCRATCH/511016/C90272-P112

>  <fragmenstein_runtime>  (552) 
9.997551202774048

>  <fragmenstein_outcome>  (552) 
too moved

>  <fragmenstein_mode>  (552) 
expansion

>  <fragmenstein_error>  (552) 


$$$$
C90272-P81
     RDKit          3D

 29 30  0  0  0  0  0  0  0  0999 V2000
    2.0565  -10.8693   10.5630 N   0  0  0  0  0  0  0  0  0  0  0  0
    0.6365  -11.2290   10.7582 C   0  0  0  0  0  0  0  0  0  0  0  0
   -0.2236   -9.9588   10.6896 C   0  0  0  0  0  0  0  0  0  0  0  0
   -0.9464   -9.7908    9.3710 C   0  0  0  0  0  0  0  0  0  0  0  0
   -0.1671  -10.2912    8.3042 O   0  0  0  0  0  0  0  0  0  0  0  0
    0.0017  -11.7112    8.3457 C   0  0  0  0  0  0  0  0  0  0  0  0
    0.1890  -12.3220    9.7504 C   0  0  0  0  0  0  0  0  0  0  0  0
   -0.9364  -13.2033   10.1831 N   0  0  0  0  0  0  0  0  0  0  0  0
   -1.2908  -14.5507    9.7883 C   0  0  0  0  0  0  0  0  0  0  0  0
   -0.8168  -15.2671    8.9582 O   0  0  0  0  0  0  0  0  0  0  0  0
   -2.4142  -15.1607   10.5482 C   0  0  0  0  0  0  0  0  0  0  0  0
   -2.6239  -16.5240   10.7834 C   0  0  0  0  0  0  0  0  0  0  0  0
   -3.8549  -16.6415   11.4541 C   0  0  0  0  0  0  0  0  0  0  0  0
   -4.4223  -15.4485   11.6341 N   0  0  0  0  0  0  0  0  0  0  0  0
   -3.5523  -14.5865   11.0595 N   0  0  0  0  0  0  0  0  0  0  0  0
    2.3632  -10.2741   11.3383 H   0  0  0  0  0  0  0  0  0  0  0  0
    2.6513  -11.6924   10.5515 H   0  0  0  0  0  0  0  0  0  0  0  0
    0.5212  -11.6426   11.7601 H   0  0  0  0  0  0  0  0  0  0  0  0
    0.3777   -9.0599   10.8502 H   0  0  0  0  0  0  0  0  0  0  0  0
   -0.9638   -9.9612   11.4994 H   0  0  0  0  0  0  0  0  0  0  0  0
   -1.9144  -10.3066    9.3851 H   0  0  0  0  0  0  0  0  0  0  0  0
   -1.1532   -8.7316    9.1852 H   0  0  0  0  0  0  0  0  0  0  0  0
   -0.8520  -12.1676    7.8314 H   0  0  0  0  0  0  0  0  0  0  0  0
    0.8858  -11.9277    7.7352 H   0  0  0  0  0  0  0  0  0  0  0  0
    1.0035  -13.0541    9.6552 H   0  0  0  0  0  0  0  0  0  0  0  0
   -1.6042  -12.8731   10.8635 H   0  0  0  0  0  0  0  0  0  0  0  0
   -1.9590  -17.3240   10.4845 H   0  0  0  0  0  0  0  0  0  0  0  0
   -4.3549  -17.5360   11.8066 H   0  0  0  0  0  0  0  0  0  0  0  0
   -3.8244  -13.6118   11.0199 H   0  0  0  0  0  0  0  0  0  0  0  0
  1  2  1  0
  2  3  1  0
  3  4  1  0
  4  5  1  0
  5  6  1  0
  6  7  1  0
  7  8  1  0
  8  9  1  0
  9 10  2  0
  9 11  1  0
 11 12  2  0
 12 13  1  0
 13 14  2  0
 14 15  1  0
  7  2  1  0
 15 11  1  0
  1 16  1  0
  1 17  1  0
  2 18  1  0
  3 19  1  0
  3 20  1  0
  4 21  1  0
  4 22  1  0
  6 23  1  0
  6 24  1  0
  7 25  1  0
  8 26  1  0
 12 27  1  0
 13 28  1  0
 15 29  1  0
M  END
>  <Energy>  (553) 
32.953322015377942

>  <compound_id>  (553) 
90272

>  <target_id>  (553) 
1

>  <reference_id>  (553) 
81

>  <inspiration_ids>  (553) 
[112, 81]

>  <energy_score>  (553) 
1.6034166403613739

>  <distance_score>  (553) 
14.575095023251704

>  <path>  (553) 
/opt/xchem-fragalysis-2/maxwin/BulkDock/SCRATCH/511016/C90272-P81/C90272-P81.minimised.mol

>  <scratch_subdir>  (553) 
/opt/xchem-fragalysis-2/maxwin/BulkDock/SCRATCH/511016/C90272-P81

>  <fragmenstein_runtime>  (553) 
12.352081060409546

>  <fragmenstein_outcome>  (553) 
too moved

>  <fragmenstein_mode>  (553) 
expansion

>  <fragmenstein_error>  (553) 


$$$$
C90273-P112
     RDKit          3D

 27 28  0  0  0  0  0  0  0  0999 V2000
    2.3305  -14.4806    9.5811 O   0  0  0  0  0  0  0  0  0  0  0  0
    1.5648  -13.6618    9.9966 C   0  0  0  0  0  0  0  0  0  0  0  0
    1.7537  -12.2523   10.2793 N   0  0  0  0  0  0  0  0  0  0  0  0
    3.0137  -11.3787   10.2354 C   0  0  0  0  0  0  0  0  0  0  0  0
    3.0979  -10.7834    8.8119 C   0  0  0  0  0  0  0  0  0  0  0  0
    2.0716   -9.8106    8.5824 O   0  0  0  0  0  0  0  0  0  0  0  0
    2.0409   -8.6990    9.4696 C   0  0  0  0  0  0  0  0  0  0  0  0
    3.1188   -8.7546   10.5239 C   0  0  0  0  0  0  0  0  0  0  0  0
    3.0394  -10.1447   11.2963 C   0  0  0  0  0  0  0  0  0  0  0  0
    4.3237  -10.0961   13.5295 Br  0  0  0  0  0  0  0  0  0  0  0  0
    0.2249  -14.2197   10.3759 C   0  0  0  0  0  0  0  0  0  0  0  0
   -0.0974  -15.5780   10.5129 C   0  0  0  0  0  0  0  0  0  0  0  0
   -1.4449  -15.6520   10.9078 C   0  0  0  0  0  0  0  0  0  0  0  0
   -1.9832  -14.4383   11.0101 N   0  0  0  0  0  0  0  0  0  0  0  0
   -0.9725  -13.6050   10.6623 N   0  0  0  0  0  0  0  0  0  0  0  0
    0.8682  -11.8473   10.5405 H   0  0  0  0  0  0  0  0  0  0  0  0
    3.8089  -12.1063   10.3684 H   0  0  0  0  0  0  0  0  0  0  0  0
    4.0705  -10.3335    8.5905 H   0  0  0  0  0  0  0  0  0  0  0  0
    2.9526  -11.5758    8.0687 H   0  0  0  0  0  0  0  0  0  0  0  0
    1.0473   -8.6697    9.9292 H   0  0  0  0  0  0  0  0  0  0  0  0
    2.1422   -7.7900    8.8672 H   0  0  0  0  0  0  0  0  0  0  0  0
    4.0409   -8.6761    9.9535 H   0  0  0  0  0  0  0  0  0  0  0  0
    3.0650   -7.8498   11.1296 H   0  0  0  0  0  0  0  0  0  0  0  0
    2.0458  -10.3471   11.6929 H   0  0  0  0  0  0  0  0  0  0  0  0
    0.5875  -16.4006   10.3526 H   0  0  0  0  0  0  0  0  0  0  0  0
   -2.0461  -16.5265   11.1214 H   0  0  0  0  0  0  0  0  0  0  0  0
   -1.1828  -12.6149   10.6341 H   0  0  0  0  0  0  0  0  0  0  0  0
  1  2  2  0
  2  3  1  0
  3  4  1  0
  4  5  1  0
  5  6  1  0
  6  7  1  0
  7  8  1  0
  8  9  1  0
  9 10  1  0
  2 11  1  0
 11 12  2  0
 12 13  1  0
 13 14  2  0
 14 15  1  0
  9  4  1  0
 15 11  1  0
  3 16  1  0
  4 17  1  0
  5 18  1  0
  5 19  1  0
  7 20  1  0
  7 21  1  0
  8 22  1  0
  8 23  1  0
  9 24  1  0
 12 25  1  0
 13 26  1  0
 15 27  1  0
M  END
>  <Energy>  (554) 
97.060244426083628

>  <compound_id>  (554) 
90273

>  <target_id>  (554) 
1

>  <reference_id>  (554) 
112

>  <inspiration_ids>  (554) 
[112, 81]

>  <energy_score>  (554) 
78.36069545651972

>  <distance_score>  (554) 
14.994676178583765

>  <path>  (554) 
/opt/xchem-fragalysis-2/maxwin/BulkDock/SCRATCH/511016/C90273-P112/C90273-P112.minimised.mol

>  <scratch_subdir>  (554) 
/opt/xchem-fragalysis-2/maxwin/BulkDock/SCRATCH/511016/C90273-P112

>  <fragmenstein_runtime>  (554) 
18.880549430847168

>  <fragmenstein_outcome>  (554) 
too moved

>  <fragmenstein_mode>  (554) 
expansion

>  <fragmenstein_error>  (554) 


$$$$
C90273-P81
     RDKit          3D

 27 28  0  0  0  0  0  0  0  0999 V2000
    1.8290  -14.7195   13.6933 O   0  0  0  0  0  0  0  0  0  0  0  0
    1.2791  -13.9475   14.4559 C   0  0  0  0  0  0  0  0  0  0  0  0
    1.7892  -12.6063   15.0853 N   0  0  0  0  0  0  0  0  0  0  0  0
    3.5849  -11.7016   14.9988 C   0  0  0  0  0  0  0  0  0  0  0  0
    4.9090  -12.7224   14.0679 C   0  0  0  0  0  0  0  0  0  0  0  0
    6.1319  -12.4599   13.5869 O   0  0  0  0  0  0  0  0  0  0  0  0
    5.9267  -11.0876   13.5063 C   0  0  0  0  0  0  0  0  0  0  0  0
    5.0125  -10.3044   14.1092 C   0  0  0  0  0  0  0  0  0  0  0  0
    3.6896  -10.3307   13.7613 C   0  0  0  0  0  0  0  0  0  0  0  0
    4.3268   -7.9222   13.5188 Br  0  0  0  0  0  0  0  0  0  0  0  0
   -0.0599  -14.4136   14.8922 C   0  0  0  0  0  0  0  0  0  0  0  0
   -0.8954  -14.2248   15.9807 C   0  0  0  0  0  0  0  0  0  0  0  0
   -1.9997  -15.0971   15.8017 C   0  0  0  0  0  0  0  0  0  0  0  0
   -1.9007  -15.8060   14.6810 N   0  0  0  0  0  0  0  0  0  0  0  0
   -0.7201  -15.4049   14.1686 N   0  0  0  0  0  0  0  0  0  0  0  0
    1.1405  -12.2837   15.7098 H   0  0  0  0  0  0  0  0  0  0  0  0
    3.7653  -11.4119   16.0447 H   0  0  0  0  0  0  0  0  0  0  0  0
    4.6488  -12.2018   13.2199 H   0  0  0  0  0  0  0  0  0  0  0  0
    4.7709  -13.7874   13.7913 H   0  0  0  0  0  0  0  0  0  0  0  0
    5.5947  -10.9067   12.5322 H   0  0  0  0  0  0  0  0  0  0  0  0
    6.7253  -10.4869   13.9816 H   0  0  0  0  0  0  0  0  0  0  0  0
    5.4839   -9.3961   14.1162 H   0  0  0  0  0  0  0  0  0  0  0  0
    5.0068  -10.6313   15.0426 H   0  0  0  0  0  0  0  0  0  0  0  0
    3.0910   -9.8591   14.4548 H   0  0  0  0  0  0  0  0  0  0  0  0
   -0.7273  -13.5828   16.8318 H   0  0  0  0  0  0  0  0  0  0  0  0
   -2.8571  -15.2414   16.4469 H   0  0  0  0  0  0  0  0  0  0  0  0
   -0.3777  -15.8475   13.3210 H   0  0  0  0  0  0  0  0  0  0  0  0
  1  2  2  0
  2  3  1  0
  3  4  1  0
  4  5  1  0
  5  6  1  0
  6  7  1  0
  7  8  1  0
  8  9  1  0
  9 10  1  0
  2 11  1  0
 11 12  2  0
 12 13  1  0
 13 14  2  0
 14 15  1  0
  9  4  1  0
 15 11  1  0
  3 16  1  0
  4 17  1  0
  5 18  1  0
  5 19  1  0
  7 20  1  0
  7 21  1  0
  8 22  1  0
  8 23  1  0
  9 24  1  0
 12 25  1  0
 13 26  1  0
 15 27  1  0
M  END
>  <Energy>  (555) 
465.33000788855605

>  <compound_id>  (555) 
90273

>  <target_id>  (555) 
1

>  <reference_id>  (555) 
81

>  <inspiration_ids>  (555) 
[112, 81]

>  <energy_score>  (555) 
446.630458918985

>  <distance_score>  (555) 
14.16891176919373

>  <path>  (555) 
/opt/xchem-fragalysis-2/maxwin/BulkDock/SCRATCH/511016/C90273-P81/C90273-P81.minimised.mol

>  <scratch_subdir>  (555) 
/opt/xchem-fragalysis-2/maxwin/BulkDock/SCRATCH/511016/C90273-P81

>  <fragmenstein_runtime>  (555) 
9.23230266571045

>  <fragmenstein_outcome>  (555) 
too moved

>  <fragmenstein_mode>  (555) 
expansion

>  <fragmenstein_error>  (555) 


$$$$
C90274-P112
     RDKit          3D

 27 28  0  0  0  0  0  0  0  0999 V2000
   -0.1734  -12.0090    8.2023 O   0  0  0  0  0  0  0  0  0  0  0  0
   -0.2658  -11.5311    9.2949 C   0  0  0  0  0  0  0  0  0  0  0  0
    0.3481  -10.3468    9.8608 N   0  0  0  0  0  0  0  0  0  0  0  0
    1.3614   -9.4067    9.2974 C   0  0  0  0  0  0  0  0  0  0  0  0
    2.8048   -9.8291    9.6045 C   0  0  0  0  0  0  0  0  0  0  0  0
    3.7918   -9.0644    8.9045 O   0  0  0  0  0  0  0  0  0  0  0  0
    3.6266   -7.6514    8.8736 C   0  0  0  0  0  0  0  0  0  0  0  0
    2.5623   -7.1489    9.8184 C   0  0  0  0  0  0  0  0  0  0  0  0
    1.2331   -7.8690    9.5431 C   0  0  0  0  0  0  0  0  0  0  0  0
    0.0785   -7.4106   10.8098 Cl  0  0  0  0  0  0  0  0  0  0  0  0
   -1.1592  -12.2962   10.2087 C   0  0  0  0  0  0  0  0  0  0  0  0
   -1.5415  -12.2412   11.5405 C   0  0  0  0  0  0  0  0  0  0  0  0
   -2.4182  -13.3368   11.7587 C   0  0  0  0  0  0  0  0  0  0  0  0
   -2.6109  -14.0521   10.6530 N   0  0  0  0  0  0  0  0  0  0  0  0
   -1.8437  -13.4166    9.7418 N   0  0  0  0  0  0  0  0  0  0  0  0
   -0.0203  -10.1964   10.7927 H   0  0  0  0  0  0  0  0  0  0  0  0
    1.2552   -9.5339    8.2102 H   0  0  0  0  0  0  0  0  0  0  0  0
    2.9948   -9.7805   10.6735 H   0  0  0  0  0  0  0  0  0  0  0  0
    2.9527  -10.8766    9.3181 H   0  0  0  0  0  0  0  0  0  0  0  0
    3.3756   -7.3765    7.8429 H   0  0  0  0  0  0  0  0  0  0  0  0
    4.5910   -7.1853    9.0977 H   0  0  0  0  0  0  0  0  0  0  0  0
    2.8919   -7.3233   10.8451 H   0  0  0  0  0  0  0  0  0  0  0  0
    2.4410   -6.0651    9.7041 H   0  0  0  0  0  0  0  0  0  0  0  0
    0.8084   -7.4413    8.6263 H   0  0  0  0  0  0  0  0  0  0  0  0
   -1.2298  -11.5168   12.2768 H   0  0  0  0  0  0  0  0  0  0  0  0
   -2.9163  -13.6292   12.6745 H   0  0  0  0  0  0  0  0  0  0  0  0
   -1.7987  -13.7794    8.7943 H   0  0  0  0  0  0  0  0  0  0  0  0
  1  2  2  0
  2  3  1  0
  3  4  1  0
  4  5  1  0
  5  6  1  0
  6  7  1  0
  7  8  1  0
  8  9  1  0
  9 10  1  0
  2 11  1  0
 11 12  2  0
 12 13  1  0
 13 14  2  0
 14 15  1  0
  9  4  1  0
 15 11  1  0
  3 16  1  0
  4 17  1  0
  5 18  1  0
  5 19  1  0
  7 20  1  0
  7 21  1  0
  8 22  1  0
  8 23  1  0
  9 24  1  0
 12 25  1  0
 13 26  1  0
 15 27  1  0
M  END
>  <Energy>  (556) 
9.8405382979448355

>  <compound_id>  (556) 
90274

>  <target_id>  (556) 
1

>  <reference_id>  (556) 
112

>  <inspiration_ids>  (556) 
[112, 81]

>  <energy_score>  (556) 
-28.863177023910737

>  <distance_score>  (556) 
15.21361365154543

>  <path>  (556) 
/opt/xchem-fragalysis-2/maxwin/BulkDock/SCRATCH/511016/C90274-P112/C90274-P112.minimised.mol

>  <scratch_subdir>  (556) 
/opt/xchem-fragalysis-2/maxwin/BulkDock/SCRATCH/511016/C90274-P112

>  <fragmenstein_runtime>  (556) 
7.129992485046387

>  <fragmenstein_outcome>  (556) 
too moved

>  <fragmenstein_mode>  (556) 
expansion

>  <fragmenstein_error>  (556) 


$$$$
C90274-P81
     RDKit          3D

 27 28  0  0  0  0  0  0  0  0999 V2000
    0.4300   -3.7478   13.2382 O   0  0  0  0  0  0  0  0  0  0  0  0
    0.4719   -4.5726   14.1011 C   0  0  0  0  0  0  0  0  0  0  0  0
    1.5973   -5.1244   14.8229 N   0  0  0  0  0  0  0  0  0  0  0  0
    3.1493   -4.9110   14.6427 C   0  0  0  0  0  0  0  0  0  0  0  0
    3.4457   -5.1212   12.8386 C   0  0  0  0  0  0  0  0  0  0  0  0
    4.2121   -6.5864   12.4489 O   0  0  0  0  0  0  0  0  0  0  0  0
    5.3159   -7.4091   13.5500 C   0  0  0  0  0  0  0  0  0  0  0  0
    5.9623   -6.7087   15.0947 C   0  0  0  0  0  0  0  0  0  0  0  0
    4.2111   -6.1801   15.6324 C   0  0  0  0  0  0  0  0  0  0  0  0
    5.1078   -6.0870   17.3552 Cl  0  0  0  0  0  0  0  0  0  0  0  0
   -0.8100   -5.2868   14.4936 C   0  0  0  0  0  0  0  0  0  0  0  0
   -1.6667   -5.9483   13.5937 C   0  0  0  0  0  0  0  0  0  0  0  0
   -2.4690   -6.8354   14.3432 C   0  0  0  0  0  0  0  0  0  0  0  0
   -2.2123   -6.7246   15.6444 N   0  0  0  0  0  0  0  0  0  0  0  0
   -1.3009   -5.7213   15.7049 N   0  0  0  0  0  0  0  0  0  0  0  0
    1.2568   -5.7393   15.5387 H   0  0  0  0  0  0  0  0  0  0  0  0
    3.3525   -3.8766   14.9473 H   0  0  0  0  0  0  0  0  0  0  0  0
    4.0337   -4.3402   12.3438 H   0  0  0  0  0  0  0  0  0  0  0  0
    2.5031   -5.1468   12.2741 H   0  0  0  0  0  0  0  0  0  0  0  0
    6.2671   -7.5974   13.0600 H   0  0  0  0  0  0  0  0  0  0  0  0
    4.7260   -8.3071   13.7107 H   0  0  0  0  0  0  0  0  0  0  0  0
    6.7394   -6.0818   15.5797 H   0  0  0  0  0  0  0  0  0  0  0  0
    6.5565   -7.5487   15.3579 H   0  0  0  0  0  0  0  0  0  0  0  0
    3.5474   -7.0111   15.4489 H   0  0  0  0  0  0  0  0  0  0  0  0
   -1.6132   -5.8720   12.5149 H   0  0  0  0  0  0  0  0  0  0  0  0
   -3.2024   -7.5519   13.9953 H   0  0  0  0  0  0  0  0  0  0  0  0
   -1.0386   -5.3937   16.6246 H   0  0  0  0  0  0  0  0  0  0  0  0
  1  2  2  0
  2  3  1  0
  3  4  1  0
  4  5  1  0
  5  6  1  0
  6  7  1  0
  7  8  1  0
  8  9  1  0
  9 10  1  0
  2 11  1  0
 11 12  2  0
 12 13  1  0
 13 14  2  0
 14 15  1  0
  9  4  1  0
 15 11  1  0
  3 16  1  0
  4 17  1  0
  5 18  1  0
  5 19  1  0
  7 20  1  0
  7 21  1  0
  8 22  1  0
  8 23  1  0
  9 24  1  0
 12 25  1  0
 13 26  1  0
 15 27  1  0
M  END
>  <Energy>  (557) 
268.89828701212144

>  <compound_id>  (557) 
90274

>  <target_id>  (557) 
1

>  <reference_id>  (557) 
81

>  <inspiration_ids>  (557) 
[112, 81]

>  <energy_score>  (557) 
230.1945716902689

>  <distance_score>  (557) 
18.229780455439066

>  <path>  (557) 
/opt/xchem-fragalysis-2/maxwin/BulkDock/SCRATCH/511016/C90274-P81/C90274-P81.minimised.mol

>  <scratch_subdir>  (557) 
/opt/xchem-fragalysis-2/maxwin/BulkDock/SCRATCH/511016/C90274-P81

>  <fragmenstein_runtime>  (557) 
10.560946464538574

>  <fragmenstein_outcome>  (557) 
too moved

>  <fragmenstein_mode>  (557) 
expansion

>  <fragmenstein_error>  (557) 


$$$$
C13494-P112
     RDKit          3D

 38 39  0  0  0  0  0  0  0  0999 V2000
    2.9952   -7.7266    7.9266 C   0  0  0  0  0  0  0  0  0  0  0  0
    2.6637   -7.6141    9.4334 C   0  0  0  0  0  0  0  0  0  0  0  0
    3.7675   -6.7705   10.1033 C   0  0  0  0  0  0  0  0  0  0  0  0
    1.3236   -6.8935    9.5191 C   0  0  0  0  0  0  0  0  0  0  0  0
    0.4040   -6.9663    8.7136 O   0  0  0  0  0  0  0  0  0  0  0  0
    1.1829   -6.0661   10.5796 O   0  0  0  0  0  0  0  0  0  0  0  0
    2.6159   -8.9606   10.0352 N   0  0  0  0  0  0  0  0  0  0  0  0
    3.6353   -9.8597    9.9858 C   0  0  0  0  0  0  0  0  0  0  0  0
    3.0705  -11.0348   10.4130 C   0  0  0  0  0  0  0  0  0  0  0  0
    1.7662  -10.7514   10.9985 C   0  0  0  0  0  0  0  0  0  0  0  0
    0.6267  -11.6914   11.4054 N   0  0  0  0  0  0  0  0  0  0  0  0
    0.6450  -13.1871   11.7992 C   0  0  0  0  0  0  0  0  0  0  0  0
    1.5425  -13.9201   11.9582 O   0  0  0  0  0  0  0  0  0  0  0  0
   -0.5503  -13.8894   11.9028 C   0  0  0  0  0  0  0  0  0  0  0  0
   -0.9804  -15.1463   11.0558 C   0  0  0  0  0  0  0  0  0  0  0  0
   -0.2803  -16.4798   10.5566 C   0  0  0  0  0  0  0  0  0  0  0  0
   -0.7378  -17.4270    9.6020 C   0  0  0  0  0  0  0  0  0  0  0  0
    0.0504  -18.5736    9.7384 C   0  0  0  0  0  0  0  0  0  0  0  0
    0.9820  -18.3898   10.6606 N   0  0  0  0  0  0  0  0  0  0  0  0
    0.8457  -17.0936   11.0290 N   0  0  0  0  0  0  0  0  0  0  0  0
    1.4696   -9.5150   10.5153 N   0  0  0  0  0  0  0  0  0  0  0  0
    2.2882   -8.3893    7.4123 H   0  0  0  0  0  0  0  0  0  0  0  0
    2.9447   -6.7471    7.4360 H   0  0  0  0  0  0  0  0  0  0  0  0
    4.0007   -8.1270    7.7554 H   0  0  0  0  0  0  0  0  0  0  0  0
    4.7650   -7.1863    9.9207 H   0  0  0  0  0  0  0  0  0  0  0  0
    3.7658   -5.7419    9.7236 H   0  0  0  0  0  0  0  0  0  0  0  0
    3.6356   -6.7208   11.1889 H   0  0  0  0  0  0  0  0  0  0  0  0
    0.2626   -5.7426   10.4777 H   0  0  0  0  0  0  0  0  0  0  0  0
    4.5981   -9.6421    9.5465 H   0  0  0  0  0  0  0  0  0  0  0  0
    3.5620  -11.9828   10.2896 H   0  0  0  0  0  0  0  0  0  0  0  0
   -0.3140  -11.3464   11.4371 H   0  0  0  0  0  0  0  0  0  0  0  0
   -0.6377  -13.9520   12.9615 H   0  0  0  0  0  0  0  0  0  0  0  0
   -0.9760  -13.0602   11.4627 H   0  0  0  0  0  0  0  0  0  0  0  0
   -1.9752  -15.3353   11.3769 H   0  0  0  0  0  0  0  0  0  0  0  0
   -1.6036  -14.8158   10.2588 H   0  0  0  0  0  0  0  0  0  0  0  0
   -1.6332  -17.3543    8.9968 H   0  0  0  0  0  0  0  0  0  0  0  0
   -0.0313  -19.5303    9.2401 H   0  0  0  0  0  0  0  0  0  0  0  0
    1.5156  -16.7472   11.7076 H   0  0  0  0  0  0  0  0  0  0  0  0
  1  2  1  0
  2  3  1  0
  2  4  1  0
  4  5  2  0
  4  6  1  0
  2  7  1  0
  7  8  1  0
  8  9  2  0
  9 10  1  0
 10 11  1  0
 11 12  1  0
 12 13  2  0
 12 14  1  0
 14 15  1  0
 15 16  1  0
 16 17  2  0
 17 18  1  0
 18 19  2  0
 19 20  1  0
 10 21  2  0
 21  7  1  0
 20 16  1  0
  1 22  1  0
  1 23  1  0
  1 24  1  0
  3 25  1  0
  3 26  1  0
  3 27  1  0
  6 28  1  0
  8 29  1  0
  9 30  1  0
 11 31  1  0
 14 32  1  0
 14 33  1  0
 15 34  1  0
 15 35  1  0
 17 36  1  0
 18 37  1  0
 20 38  1  0
M  END
>  <Energy>  (558) 
84.616144181051908

>  <compound_id>  (558) 
13494

>  <target_id>  (558) 
1

>  <reference_id>  (558) 
112

>  <inspiration_ids>  (558) 
[112, 81]

>  <energy_score>  (558) 
54.84271014923792

>  <distance_score>  (558) 
14.370102905335802

>  <path>  (558) 
/opt/xchem-fragalysis-2/maxwin/BulkDock/SCRATCH/511016/C13494-P112/C13494-P112.minimised.mol

>  <scratch_subdir>  (558) 
/opt/xchem-fragalysis-2/maxwin/BulkDock/SCRATCH/511016/C13494-P112

>  <fragmenstein_runtime>  (558) 
13.021670818328857

>  <fragmenstein_outcome>  (558) 
too moved

>  <fragmenstein_mode>  (558) 
expansion

>  <fragmenstein_error>  (558) 


$$$$
C13494-P81
     RDKit          3D

 38 39  0  0  0  0  0  0  0  0999 V2000
    4.9796   -7.5026    8.5287 C   0  0  0  0  0  0  0  0  0  0  0  0
    5.2547   -8.0089    9.9552 C   0  0  0  0  0  0  0  0  0  0  0  0
    4.4322   -7.1723   10.9472 C   0  0  0  0  0  0  0  0  0  0  0  0
    6.7240   -7.8271   10.3654 C   0  0  0  0  0  0  0  0  0  0  0  0
    7.2446   -8.2738   11.3791 O   0  0  0  0  0  0  0  0  0  0  0  0
    7.4616   -7.0677    9.5246 O   0  0  0  0  0  0  0  0  0  0  0  0
    4.9145   -9.4415   10.0119 N   0  0  0  0  0  0  0  0  0  0  0  0
    5.7237  -10.4642    9.5962 C   0  0  0  0  0  0  0  0  0  0  0  0
    4.9587  -11.6014    9.6691 C   0  0  0  0  0  0  0  0  0  0  0  0
    3.6775  -11.2004   10.1384 C   0  0  0  0  0  0  0  0  0  0  0  0
    2.6840  -12.1348   10.4630 N   0  0  0  0  0  0  0  0  0  0  0  0
    1.3178  -11.9500   11.1182 C   0  0  0  0  0  0  0  0  0  0  0  0
    0.7353  -10.9487   11.4386 O   0  0  0  0  0  0  0  0  0  0  0  0
    0.4503  -13.4058   11.6266 C   0  0  0  0  0  0  0  0  0  0  0  0
    0.1259  -14.9518   11.4099 C   0  0  0  0  0  0  0  0  0  0  0  0
    0.6582  -16.2462   10.7670 C   0  0  0  0  0  0  0  0  0  0  0  0
    0.8452  -16.7466    9.4891 C   0  0  0  0  0  0  0  0  0  0  0  0
    0.7994  -18.1573    9.6045 C   0  0  0  0  0  0  0  0  0  0  0  0
    0.7267  -18.5485   10.8706 N   0  0  0  0  0  0  0  0  0  0  0  0
    0.8083  -17.3924   11.5432 N   0  0  0  0  0  0  0  0  0  0  0  0
    3.6561   -9.8720   10.3057 N   0  0  0  0  0  0  0  0  0  0  0  0
    5.6032   -8.0219    7.7911 H   0  0  0  0  0  0  0  0  0  0  0  0
    5.1866   -6.4301    8.4358 H   0  0  0  0  0  0  0  0  0  0  0  0
    3.9331   -7.6638    8.2443 H   0  0  0  0  0  0  0  0  0  0  0  0
    3.3601   -7.2197   10.7275 H   0  0  0  0  0  0  0  0  0  0  0  0
    4.7253   -6.1167   10.9114 H   0  0  0  0  0  0  0  0  0  0  0  0
    4.5876   -7.5147   11.9764 H   0  0  0  0  0  0  0  0  0  0  0  0
    8.3724   -7.0083    9.9132 H   0  0  0  0  0  0  0  0  0  0  0  0
    6.7478  -10.3104    9.2853 H   0  0  0  0  0  0  0  0  0  0  0  0
    5.2890  -12.6041    9.4404 H   0  0  0  0  0  0  0  0  0  0  0  0
    2.8265  -13.1049   10.2602 H   0  0  0  0  0  0  0  0  0  0  0  0
    0.3512  -13.2613   12.7189 H   0  0  0  0  0  0  0  0  0  0  0  0
   -0.4828  -12.9882   11.3108 H   0  0  0  0  0  0  0  0  0  0  0  0
   -0.9229  -14.9688   11.0962 H   0  0  0  0  0  0  0  0  0  0  0  0
    0.2093  -15.2328   12.4516 H   0  0  0  0  0  0  0  0  0  0  0  0
    0.8913  -16.2129    8.5531 H   0  0  0  0  0  0  0  0  0  0  0  0
    0.8202  -18.9007    8.8178 H   0  0  0  0  0  0  0  0  0  0  0  0
    0.8826  -17.4461   12.5543 H   0  0  0  0  0  0  0  0  0  0  0  0
  1  2  1  0
  2  3  1  0
  2  4  1  0
  4  5  2  0
  4  6  1  0
  2  7  1  0
  7  8  1  0
  8  9  2  0
  9 10  1  0
 10 11  1  0
 11 12  1  0
 12 13  2  0
 12 14  1  0
 14 15  1  0
 15 16  1  0
 16 17  2  0
 17 18  1  0
 18 19  2  0
 19 20  1  0
 10 21  2  0
 21  7  1  0
 20 16  1  0
  1 22  1  0
  1 23  1  0
  1 24  1  0
  3 25  1  0
  3 26  1  0
  3 27  1  0
  6 28  1  0
  8 29  1  0
  9 30  1  0
 11 31  1  0
 14 32  1  0
 14 33  1  0
 15 34  1  0
 15 35  1  0
 17 36  1  0
 18 37  1  0
 20 38  1  0
M  END
>  <Energy>  (559) 
73.60594845219228

>  <compound_id>  (559) 
13494

>  <target_id>  (559) 
1

>  <reference_id>  (559) 
81

>  <inspiration_ids>  (559) 
[112, 81]

>  <energy_score>  (559) 
43.8325144203819

>  <distance_score>  (559) 
14.32781075147046

>  <path>  (559) 
/opt/xchem-fragalysis-2/maxwin/BulkDock/SCRATCH/511016/C13494-P81/C13494-P81.minimised.mol

>  <scratch_subdir>  (559) 
/opt/xchem-fragalysis-2/maxwin/BulkDock/SCRATCH/511016/C13494-P81

>  <fragmenstein_runtime>  (559) 
13.075270652770996

>  <fragmenstein_outcome>  (559) 
too moved

>  <fragmenstein_mode>  (559) 
expansion

>  <fragmenstein_error>  (559) 


$$$$
C13495-P112
     RDKit          3D

 35 36  0  0  0  0  0  0  0  0999 V2000
    8.2545   -3.6261   15.4196 C   0  0  0  0  0  0  0  0  0  0  0  0
    7.3614   -5.2339   15.8305 N   0  0  0  0  0  0  0  0  0  0  0  0
    7.5158   -6.4194   15.1292 C   0  0  0  0  0  0  0  0  0  0  0  0
    6.2836   -6.9363   14.8406 C   0  0  0  0  0  0  0  0  0  0  0  0
    5.3409   -8.1777   14.0491 N   0  0  0  0  0  0  0  0  0  0  0  0
    4.2453   -8.0883   13.1119 C   0  0  0  0  0  0  0  0  0  0  0  0
    3.7695   -7.1461   12.5782 O   0  0  0  0  0  0  0  0  0  0  0  0
    3.7205   -9.8360   12.8689 N   0  0  0  0  0  0  0  0  0  0  0  0
    2.2158  -10.5924   11.7843 C   0  0  0  0  0  0  0  0  0  0  0  0
    0.6507  -11.8824   11.9497 C   0  0  0  0  0  0  0  0  0  0  0  0
    0.8080  -13.6125   11.7420 N   0  0  0  0  0  0  0  0  0  0  0  0
   -0.2074  -14.6596   11.3972 C   0  0  0  0  0  0  0  0  0  0  0  0
   -1.3879  -14.5746   11.2656 O   0  0  0  0  0  0  0  0  0  0  0  0
    0.2823  -16.1410   10.9981 C   0  0  0  0  0  0  0  0  0  0  0  0
   -0.4658  -16.9780   10.1292 C   0  0  0  0  0  0  0  0  0  0  0  0
    0.1939  -18.1786    9.8795 C   0  0  0  0  0  0  0  0  0  0  0  0
    1.3639  -18.1514   10.4774 N   0  0  0  0  0  0  0  0  0  0  0  0
    1.3994  -16.9337   11.0654 N   0  0  0  0  0  0  0  0  0  0  0  0
    5.6884   -6.2302   16.3204 C   0  0  0  0  0  0  0  0  0  0  0  0
    6.6015   -5.5909   16.9653 N   0  0  0  0  0  0  0  0  0  0  0  0
    7.8159   -2.7893   15.9225 H   0  0  0  0  0  0  0  0  0  0  0  0
    9.3158   -3.7725   15.2017 H   0  0  0  0  0  0  0  0  0  0  0  0
    7.8938   -3.0887   14.5059 H   0  0  0  0  0  0  0  0  0  0  0  0
    8.4227   -6.5912   14.6178 H   0  0  0  0  0  0  0  0  0  0  0  0
    5.5317   -9.1423   14.2322 H   0  0  0  0  0  0  0  0  0  0  0  0
    4.2319  -10.4358   13.5046 H   0  0  0  0  0  0  0  0  0  0  0  0
    2.7742  -11.0634   10.9651 H   0  0  0  0  0  0  0  0  0  0  0  0
    1.9711  -10.8318   12.8023 H   0  0  0  0  0  0  0  0  0  0  0  0
    0.2505  -11.9572   12.9481 H   0  0  0  0  0  0  0  0  0  0  0  0
   -0.1439  -11.5470   11.3030 H   0  0  0  0  0  0  0  0  0  0  0  0
    1.6721  -14.0320   11.8511 H   0  0  0  0  0  0  0  0  0  0  0  0
   -1.4672  -16.7654    9.7732 H   0  0  0  0  0  0  0  0  0  0  0  0
   -0.1153  -19.0440    9.3086 H   0  0  0  0  0  0  0  0  0  0  0  0
    2.1923  -16.8195   11.6777 H   0  0  0  0  0  0  0  0  0  0  0  0
    4.6809   -6.2773   16.7325 H   0  0  0  0  0  0  0  0  0  0  0  0
  1  2  1  0
  2  3  1  0
  3  4  2  0
  4  5  1  0
  5  6  1  0
  6  7  2  0
  6  8  1  0
  8  9  1  0
  9 10  1  0
 10 11  1  0
 11 12  1  0
 12 13  2  0
 12 14  1  0
 14 15  2  0
 15 16  1  0
 16 17  2  0
 17 18  1  0
  4 19  1  0
 19 20  2  0
 20  2  1  0
 18 14  1  0
  1 21  1  0
  1 22  1  0
  1 23  1  0
  3 24  1  0
  5 25  1  0
  8 26  1  0
  9 27  1  0
  9 28  1  0
 10 29  1  0
 10 30  1  0
 11 31  1  0
 15 32  1  0
 16 33  1  0
 18 34  1  0
 19 35  1  0
M  END
>  <Energy>  (560) 
445.61880205534391

>  <compound_id>  (560) 
13495

>  <target_id>  (560) 
1

>  <reference_id>  (560) 
112

>  <inspiration_ids>  (560) 
[112, 81]

>  <energy_score>  (560) 
495.8678813564677

>  <distance_score>  (560) 
12.6306051015719

>  <path>  (560) 
/opt/xchem-fragalysis-2/maxwin/BulkDock/SCRATCH/511016/C13495-P112/C13495-P112.minimised.mol

>  <scratch_subdir>  (560) 
/opt/xchem-fragalysis-2/maxwin/BulkDock/SCRATCH/511016/C13495-P112

>  <fragmenstein_runtime>  (560) 
9.649916410446167

>  <fragmenstein_outcome>  (560) 
too moved

>  <fragmenstein_mode>  (560) 
expansion

>  <fragmenstein_error>  (560) 


$$$$
C13495-P81
     RDKit          3D

 35 36  0  0  0  0  0  0  0  0999 V2000
    3.1810  -10.7926    9.8514 C   0  0  0  0  0  0  0  0  0  0  0  0
    2.3092  -11.3439   10.8358 N   0  0  0  0  0  0  0  0  0  0  0  0
    2.0921  -12.6735   10.6564 C   0  0  0  0  0  0  0  0  0  0  0  0
    0.7817  -13.1029   11.3477 C   0  0  0  0  0  0  0  0  0  0  0  0
    0.4137  -14.5543   11.3044 N   0  0  0  0  0  0  0  0  0  0  0  0
    1.0591  -15.8212   10.3792 C   0  0  0  0  0  0  0  0  0  0  0  0
    1.9852  -15.7770    9.6552 O   0  0  0  0  0  0  0  0  0  0  0  0
    0.1488  -16.8751   10.6391 N   0  0  0  0  0  0  0  0  0  0  0  0
    0.1254  -18.2732   10.1649 C   0  0  0  0  0  0  0  0  0  0  0  0
   -0.8599  -18.6240    8.9985 C   0  0  0  0  0  0  0  0  0  0  0  0
   -2.2511  -18.6564    9.4261 N   0  0  0  0  0  0  0  0  0  0  0  0
   -3.3949  -17.9375    8.9557 C   0  0  0  0  0  0  0  0  0  0  0  0
   -3.5175  -17.1849    8.0368 O   0  0  0  0  0  0  0  0  0  0  0  0
   -4.5690  -18.1065    9.8371 C   0  0  0  0  0  0  0  0  0  0  0  0
   -5.6459  -17.2238    9.9195 C   0  0  0  0  0  0  0  0  0  0  0  0
   -6.3678  -17.5772   11.0680 C   0  0  0  0  0  0  0  0  0  0  0  0
   -5.8417  -18.6421   11.6579 N   0  0  0  0  0  0  0  0  0  0  0  0
   -4.8237  -19.0142   10.8520 N   0  0  0  0  0  0  0  0  0  0  0  0
    0.3616  -11.7946   11.7091 C   0  0  0  0  0  0  0  0  0  0  0  0
    1.1916  -10.7854   11.3185 N   0  0  0  0  0  0  0  0  0  0  0  0
    2.6298  -10.5083    8.9738 H   0  0  0  0  0  0  0  0  0  0  0  0
    3.7621  -10.0040   10.2588 H   0  0  0  0  0  0  0  0  0  0  0  0
    3.7374  -11.5677    9.3353 H   0  0  0  0  0  0  0  0  0  0  0  0
    2.8208  -13.2402   10.0714 H   0  0  0  0  0  0  0  0  0  0  0  0
   -0.4260  -14.8652   11.7628 H   0  0  0  0  0  0  0  0  0  0  0  0
   -0.5553  -16.5458   11.2408 H   0  0  0  0  0  0  0  0  0  0  0  0
   -0.0568  -18.9146   11.0340 H   0  0  0  0  0  0  0  0  0  0  0  0
    1.1406  -18.4838    9.8091 H   0  0  0  0  0  0  0  0  0  0  0  0
   -0.7617  -17.8979    8.1856 H   0  0  0  0  0  0  0  0  0  0  0  0
   -0.6274  -19.6229    8.6170 H   0  0  0  0  0  0  0  0  0  0  0  0
   -2.5329  -19.2661   10.1799 H   0  0  0  0  0  0  0  0  0  0  0  0
   -5.8093  -16.3680    9.2775 H   0  0  0  0  0  0  0  0  0  0  0  0
   -7.2361  -17.1007   11.5047 H   0  0  0  0  0  0  0  0  0  0  0  0
   -4.4000  -19.9195   11.0474 H   0  0  0  0  0  0  0  0  0  0  0  0
   -0.5311  -11.4682   12.1900 H   0  0  0  0  0  0  0  0  0  0  0  0
  1  2  1  0
  2  3  1  0
  3  4  2  0
  4  5  1  0
  5  6  1  0
  6  7  2  0
  6  8  1  0
  8  9  1  0
  9 10  1  0
 10 11  1  0
 11 12  1  0
 12 13  2  0
 12 14  1  0
 14 15  2  0
 15 16  1  0
 16 17  2  0
 17 18  1  0
  4 19  1  0
 19 20  2  0
 20  2  1  0
 18 14  1  0
  1 21  1  0
  1 22  1  0
  1 23  1  0
  3 24  1  0
  5 25  1  0
  8 26  1  0
  9 27  1  0
  9 28  1  0
 10 29  1  0
 10 30  1  0
 11 31  1  0
 15 32  1  0
 16 33  1  0
 18 34  1  0
 19 35  1  0
M  END
>  <Energy>  (561) 
11.856252545915408

>  <compound_id>  (561) 
13495

>  <target_id>  (561) 
1

>  <reference_id>  (561) 
81

>  <inspiration_ids>  (561) 
[112, 81]

>  <energy_score>  (561) 
62.10533184703331

>  <distance_score>  (561) 
12.684440999509066

>  <path>  (561) 
/opt/xchem-fragalysis-2/maxwin/BulkDock/SCRATCH/511016/C13495-P81/C13495-P81.minimised.mol

>  <scratch_subdir>  (561) 
/opt/xchem-fragalysis-2/maxwin/BulkDock/SCRATCH/511016/C13495-P81

>  <fragmenstein_runtime>  (561) 
28.917617082595825

>  <fragmenstein_outcome>  (561) 
too moved

>  <fragmenstein_mode>  (561) 
expansion

>  <fragmenstein_error>  (561) 


$$$$
C13496-P112
     RDKit          3D

 38 39  0  0  0  0  0  0  0  0999 V2000
    4.5626  -11.8424   14.7369 O   0  0  0  0  0  0  0  0  0  0  0  0
    5.5128  -12.1418   14.1072 C   0  0  0  0  0  0  0  0  0  0  0  0
    6.1728  -13.8120   13.6198 N   0  0  0  0  0  0  0  0  0  0  0  0
    5.5831  -15.7032   14.1231 C   0  0  0  0  0  0  0  0  0  0  0  0
    6.2541  -17.2333   14.4090 C   0  0  0  0  0  0  0  0  0  0  0  0
    5.1758  -18.2485   14.1443 N   0  0  0  0  0  0  0  0  0  0  0  0
    4.4808  -18.5954   12.9263 C   0  0  0  0  0  0  0  0  0  0  0  0
    4.6432  -18.2176   11.8027 O   0  0  0  0  0  0  0  0  0  0  0  0
    3.3614  -19.5454   13.1212 C   0  0  0  0  0  0  0  0  0  0  0  0
    3.0784  -20.5867   13.9908 C   0  0  0  0  0  0  0  0  0  0  0  0
    1.8613  -21.1558   13.5373 C   0  0  0  0  0  0  0  0  0  0  0  0
    1.3458  -20.4949   12.5000 N   0  0  0  0  0  0  0  0  0  0  0  0
    2.2619  -19.5292   12.2742 N   0  0  0  0  0  0  0  0  0  0  0  0
    6.5248  -11.4005   13.6311 N   0  0  0  0  0  0  0  0  0  0  0  0
    6.9737   -9.6495   13.8893 C   0  0  0  0  0  0  0  0  0  0  0  0
    8.4925   -9.6465   15.1834 C   0  0  0  0  0  0  0  0  0  0  0  0
    9.2627   -8.1103   15.3358 N   0  0  0  0  0  0  0  0  0  0  0  0
    7.9877   -6.9238   14.6134 N   0  0  0  0  0  0  0  0  0  0  0  0
    7.6254   -5.5425   15.4833 C   0  0  0  0  0  0  0  0  0  0  0  0
    8.3737   -3.6570   15.2607 C   0  0  0  0  0  0  0  0  0  0  0  0
    7.8215   -2.8178   14.2817 F   0  0  0  0  0  0  0  0  0  0  0  0
    9.7152   -3.5284   15.0900 F   0  0  0  0  0  0  0  0  0  0  0  0
    6.6312   -7.9328   14.1012 C   0  0  0  0  0  0  0  0  0  0  0  0
    7.0465  -13.7189   13.1508 H   0  0  0  0  0  0  0  0  0  0  0  0
    5.2270  -16.0636   13.1494 H   0  0  0  0  0  0  0  0  0  0  0  0
    5.0735  -15.7880   15.1175 H   0  0  0  0  0  0  0  0  0  0  0  0
    7.0823  -17.5192   13.7579 H   0  0  0  0  0  0  0  0  0  0  0  0
    6.5647  -17.3209   15.4547 H   0  0  0  0  0  0  0  0  0  0  0  0
    4.7159  -18.6993   14.9264 H   0  0  0  0  0  0  0  0  0  0  0  0
    3.6906  -20.9370   14.8081 H   0  0  0  0  0  0  0  0  0  0  0  0
    1.3265  -22.0081   13.9374 H   0  0  0  0  0  0  0  0  0  0  0  0
    2.1041  -18.8587   11.5277 H   0  0  0  0  0  0  0  0  0  0  0  0
    7.1009  -11.9742   13.0791 H   0  0  0  0  0  0  0  0  0  0  0  0
    9.0872  -10.5066   15.4672 H   0  0  0  0  0  0  0  0  0  0  0  0
    8.2878   -5.4652   14.5938 H   0  0  0  0  0  0  0  0  0  0  0  0
    6.5834   -5.7105   15.7139 H   0  0  0  0  0  0  0  0  0  0  0  0
    7.9533   -2.9752   15.9374 H   0  0  0  0  0  0  0  0  0  0  0  0
    5.7790   -7.3681   13.7868 H   0  0  0  0  0  0  0  0  0  0  0  0
  1  2  2  0
  2  3  1  0
  3  4  1  0
  4  5  1  0
  5  6  1  0
  6  7  1  0
  7  8  2  0
  7  9  1  0
  9 10  2  0
 10 11  1  0
 11 12  2  0
 12 13  1  0
  2 14  1  0
 14 15  1  0
 15 16  1  0
 16 17  2  0
 17 18  1  0
 18 19  1  0
 19 20  1  0
 20 21  1  0
 20 22  1  0
 18 23  1  0
 13  9  1  0
 23 15  2  0
  3 24  1  0
  4 25  1  0
  4 26  1  0
  5 27  1  0
  5 28  1  0
  6 29  1  0
 10 30  1  0
 11 31  1  0
 13 32  1  0
 14 33  1  0
 16 34  1  0
 19 35  1  0
 19 36  1  0
 20 37  1  0
 23 38  1  0
M  END
>  <Energy>  (562) 
680.28344643066293

>  <compound_id>  (562) 
13496

>  <target_id>  (562) 
1

>  <reference_id>  (562) 
112

>  <inspiration_ids>  (562) 
[112, 81]

>  <energy_score>  (562) 
715.6879630418631

>  <distance_score>  (562) 
13.098109432574384

>  <path>  (562) 
/opt/xchem-fragalysis-2/maxwin/BulkDock/SCRATCH/511016/C13496-P112/C13496-P112.minimised.mol

>  <scratch_subdir>  (562) 
/opt/xchem-fragalysis-2/maxwin/BulkDock/SCRATCH/511016/C13496-P112

>  <fragmenstein_runtime>  (562) 
12.859499454498291

>  <fragmenstein_outcome>  (562) 
too moved

>  <fragmenstein_mode>  (562) 
expansion

>  <fragmenstein_error>  (562) 


$$$$
C13496-P81
     RDKit          3D

 38 39  0  0  0  0  0  0  0  0999 V2000
    3.8361   -7.4482   12.6438 O   0  0  0  0  0  0  0  0  0  0  0  0
    4.3091   -8.4144   13.1319 C   0  0  0  0  0  0  0  0  0  0  0  0
    3.6714  -10.1564   12.9405 N   0  0  0  0  0  0  0  0  0  0  0  0
    2.1792  -10.8494   11.8514 C   0  0  0  0  0  0  0  0  0  0  0  0
    0.5192  -12.0011   11.9405 C   0  0  0  0  0  0  0  0  0  0  0  0
    0.6425  -13.7524   11.8744 N   0  0  0  0  0  0  0  0  0  0  0  0
   -0.2027  -14.7476   11.2472 C   0  0  0  0  0  0  0  0  0  0  0  0
   -1.2488  -14.6353   10.6910 O   0  0  0  0  0  0  0  0  0  0  0  0
    0.3639  -16.1979   11.1462 C   0  0  0  0  0  0  0  0  0  0  0  0
    0.7983  -17.3615   11.7622 C   0  0  0  0  0  0  0  0  0  0  0  0
    1.2760  -18.3014   10.8355 C   0  0  0  0  0  0  0  0  0  0  0  0
    1.2491  -17.7854    9.6292 N   0  0  0  0  0  0  0  0  0  0  0  0
    0.6418  -16.6099    9.8281 N   0  0  0  0  0  0  0  0  0  0  0  0
    5.3980   -8.5493   14.0482 N   0  0  0  0  0  0  0  0  0  0  0  0
    6.3580   -7.3386   14.8941 C   0  0  0  0  0  0  0  0  0  0  0  0
    5.8155   -6.5414   16.3536 C   0  0  0  0  0  0  0  0  0  0  0  0
    6.8186   -6.0768   17.0395 N   0  0  0  0  0  0  0  0  0  0  0  0
    7.5188   -5.6321   15.8881 N   0  0  0  0  0  0  0  0  0  0  0  0
    8.5679   -4.1082   15.4000 C   0  0  0  0  0  0  0  0  0  0  0  0
    7.8697   -2.7664   14.9110 C   0  0  0  0  0  0  0  0  0  0  0  0
    8.3494   -1.6956   15.6012 F   0  0  0  0  0  0  0  0  0  0  0  0
    6.5359   -2.7270   15.0184 F   0  0  0  0  0  0  0  0  0  0  0  0
    7.6045   -6.8520   15.1955 C   0  0  0  0  0  0  0  0  0  0  0  0
    4.2066  -10.7827   13.5249 H   0  0  0  0  0  0  0  0  0  0  0  0
    1.9631  -11.1005   12.8598 H   0  0  0  0  0  0  0  0  0  0  0  0
    2.7353  -11.3452   11.0508 H   0  0  0  0  0  0  0  0  0  0  0  0
   -0.0782  -11.6620   11.1166 H   0  0  0  0  0  0  0  0  0  0  0  0
   -0.0786  -11.9339   12.8314 H   0  0  0  0  0  0  0  0  0  0  0  0
    1.3939  -14.2038   12.3165 H   0  0  0  0  0  0  0  0  0  0  0  0
    0.8222  -17.6703   12.7615 H   0  0  0  0  0  0  0  0  0  0  0  0
    1.6642  -19.2979   10.9992 H   0  0  0  0  0  0  0  0  0  0  0  0
    0.5649  -16.0551    8.9965 H   0  0  0  0  0  0  0  0  0  0  0  0
    5.5849   -9.5312   14.1878 H   0  0  0  0  0  0  0  0  0  0  0  0
    4.8106   -6.4700   16.7720 H   0  0  0  0  0  0  0  0  0  0  0  0
    8.9952   -4.6840   14.6028 H   0  0  0  0  0  0  0  0  0  0  0  0
    9.6991   -4.0188   15.5817 H   0  0  0  0  0  0  0  0  0  0  0  0
    8.0626   -2.5744   13.8799 H   0  0  0  0  0  0  0  0  0  0  0  0
    8.4811   -7.0684   14.6758 H   0  0  0  0  0  0  0  0  0  0  0  0
  1  2  2  0
  2  3  1  0
  3  4  1  0
  4  5  1  0
  5  6  1  0
  6  7  1  0
  7  8  2  0
  7  9  1  0
  9 10  2  0
 10 11  1  0
 11 12  2  0
 12 13  1  0
  2 14  1  0
 14 15  1  0
 15 16  1  0
 16 17  2  0
 17 18  1  0
 18 19  1  0
 19 20  1  0
 20 21  1  0
 20 22  1  0
 18 23  1  0
 13  9  1  0
 23 15  2  0
  3 24  1  0
  4 25  1  0
  4 26  1  0
  5 27  1  0
  5 28  1  0
  6 29  1  0
 10 30  1  0
 11 31  1  0
 13 32  1  0
 14 33  1  0
 16 34  1  0
 19 35  1  0
 19 36  1  0
 20 37  1  0
 23 38  1  0
M  END
>  <Energy>  (563) 
470.02451866617071

>  <compound_id>  (563) 
13496

>  <target_id>  (563) 
1

>  <reference_id>  (563) 
81

>  <inspiration_ids>  (563) 
[112, 81]

>  <energy_score>  (563) 
505.429035277361

>  <distance_score>  (563) 
12.66018398212246

>  <path>  (563) 
/opt/xchem-fragalysis-2/maxwin/BulkDock/SCRATCH/511016/C13496-P81/C13496-P81.minimised.mol

>  <scratch_subdir>  (563) 
/opt/xchem-fragalysis-2/maxwin/BulkDock/SCRATCH/511016/C13496-P81

>  <fragmenstein_runtime>  (563) 
29.04054594039917

>  <fragmenstein_outcome>  (563) 
too moved

>  <fragmenstein_mode>  (563) 
expansion

>  <fragmenstein_error>  (563) 


$$$$
C13497-P112
     RDKit          3D

 35 37  0  0  0  0  0  0  0  0999 V2000
   -6.7755  -12.6894   17.4271 O   0  0  0  0  0  0  0  0  0  0  0  0
   -5.7948  -13.4210   17.3535 C   0  0  0  0  0  0  0  0  0  0  0  0
   -4.4957  -12.9672   17.6552 O   0  0  0  0  0  0  0  0  0  0  0  0
   -4.4885  -11.5528   18.0223 C   0  0  0  0  0  0  0  0  0  0  0  0
   -3.1332  -10.9642   18.4216 C   0  0  0  0  0  0  0  0  0  0  0  0
   -2.7628   -9.6286   18.5562 C   0  0  0  0  0  0  0  0  0  0  0  0
   -1.4709   -9.6294   19.1136 C   0  0  0  0  0  0  0  0  0  0  0  0
   -1.0204  -10.8698   19.2926 N   0  0  0  0  0  0  0  0  0  0  0  0
   -2.0307  -11.6595   18.8492 N   0  0  0  0  0  0  0  0  0  0  0  0
   -5.8645  -14.8275   16.9365 C   0  0  0  0  0  0  0  0  0  0  0  0
   -4.8357  -15.7464   16.7672 C   0  0  0  0  0  0  0  0  0  0  0  0
   -5.4252  -16.9338   16.3064 C   0  0  0  0  0  0  0  0  0  0  0  0
   -6.7410  -16.8189   16.1789 N   0  0  0  0  0  0  0  0  0  0  0  0
   -7.0205  -15.5619   16.5981 N   0  0  0  0  0  0  0  0  0  0  0  0
   -8.4328  -15.1613   16.6420 C   0  0  0  0  0  0  0  0  0  0  0  0
   -9.4452  -16.2853   17.0003 C   0  0  0  0  0  0  0  0  0  0  0  0
  -10.3745  -16.4627   15.7962 C   0  0  0  0  0  0  0  0  0  0  0  0
   -9.6821  -15.7640   14.6420 C   0  0  0  0  0  0  0  0  0  0  0  0
   -8.9415  -14.6123   15.3030 C   0  0  0  0  0  0  0  0  0  0  0  0
   -5.1647  -11.4114   18.8748 H   0  0  0  0  0  0  0  0  0  0  0  0
   -4.8599  -10.9783   17.1644 H   0  0  0  0  0  0  0  0  0  0  0  0
   -3.3897   -8.7732   18.3426 H   0  0  0  0  0  0  0  0  0  0  0  0
   -0.8492   -8.7921   19.4045 H   0  0  0  0  0  0  0  0  0  0  0  0
   -1.9110  -12.6674   18.8959 H   0  0  0  0  0  0  0  0  0  0  0  0
   -3.7829  -15.5663   16.9382 H   0  0  0  0  0  0  0  0  0  0  0  0
   -4.9447  -17.8690   16.0483 H   0  0  0  0  0  0  0  0  0  0  0  0
   -8.4941  -14.3901   17.4162 H   0  0  0  0  0  0  0  0  0  0  0  0
  -10.0429  -15.9809   17.8685 H   0  0  0  0  0  0  0  0  0  0  0  0
   -8.9649  -17.2235   17.2840 H   0  0  0  0  0  0  0  0  0  0  0  0
  -11.3354  -15.9759   16.0020 H   0  0  0  0  0  0  0  0  0  0  0  0
  -10.5801  -17.5113   15.5816 H   0  0  0  0  0  0  0  0  0  0  0  0
   -8.9585  -16.4157   14.1481 H   0  0  0  0  0  0  0  0  0  0  0  0
  -10.3903  -15.4171   13.8841 H   0  0  0  0  0  0  0  0  0  0  0  0
   -9.6483  -13.7947   15.4937 H   0  0  0  0  0  0  0  0  0  0  0  0
   -8.1453  -14.2187   14.6629 H   0  0  0  0  0  0  0  0  0  0  0  0
  1  2  2  0
  2  3  1  0
  3  4  1  0
  4  5  1  0
  5  6  2  0
  6  7  1  0
  7  8  2  0
  8  9  1  0
  2 10  1  0
 10 11  2  0
 11 12  1  0
 12 13  2  0
 13 14  1  0
 14 15  1  0
 15 16  1  0
 16 17  1  0
 17 18  1  0
 18 19  1  0
  9  5  1  0
 14 10  1  0
 19 15  1  0
  4 20  1  0
  4 21  1  0
  6 22  1  0
  7 23  1  0
  9 24  1  0
 11 25  1  0
 12 26  1  0
 15 27  1  0
 16 28  1  0
 16 29  1  0
 17 30  1  0
 17 31  1  0
 18 32  1  0
 18 33  1  0
 19 34  1  0
 19 35  1  0
M  END
>  <Energy>  (564) 
-1.7971476022085993

>  <compound_id>  (564) 
13497

>  <target_id>  (564) 
1

>  <reference_id>  (564) 
112

>  <inspiration_ids>  (564) 
[112, 81]

>  <energy_score>  (564) 
-27.336690526711948

>  <distance_score>  (564) 
13.43457620250454

>  <path>  (564) 
/opt/xchem-fragalysis-2/maxwin/BulkDock/SCRATCH/511016/C13497-P112/C13497-P112.minimised.mol

>  <scratch_subdir>  (564) 
/opt/xchem-fragalysis-2/maxwin/BulkDock/SCRATCH/511016/C13497-P112

>  <fragmenstein_runtime>  (564) 
10.965367794036865

>  <fragmenstein_outcome>  (564) 
too moved

>  <fragmenstein_mode>  (564) 
expansion

>  <fragmenstein_error>  (564) 


$$$$
C13497-P81
     RDKit          3D

 35 37  0  0  0  0  0  0  0  0999 V2000
   -5.3049  -15.7548   14.2772 O   0  0  0  0  0  0  0  0  0  0  0  0
   -5.2467  -16.4373   13.2631 C   0  0  0  0  0  0  0  0  0  0  0  0
   -4.0886  -16.9411   12.7375 O   0  0  0  0  0  0  0  0  0  0  0  0
   -2.9361  -16.9187   13.5970 C   0  0  0  0  0  0  0  0  0  0  0  0
   -1.8536  -16.1193   12.9612 C   0  0  0  0  0  0  0  0  0  0  0  0
   -0.8925  -15.3055   13.5090 C   0  0  0  0  0  0  0  0  0  0  0  0
   -0.1678  -14.8194   12.4114 C   0  0  0  0  0  0  0  0  0  0  0  0
   -0.5691  -15.3496   11.2657 N   0  0  0  0  0  0  0  0  0  0  0  0
   -1.5869  -16.1381   11.6232 N   0  0  0  0  0  0  0  0  0  0  0  0
   -6.3841  -16.8762   12.4809 C   0  0  0  0  0  0  0  0  0  0  0  0
   -6.4501  -17.8996   11.5451 C   0  0  0  0  0  0  0  0  0  0  0  0
   -7.7997  -17.9906   11.1633 C   0  0  0  0  0  0  0  0  0  0  0  0
   -8.5496  -17.0760   11.7653 N   0  0  0  0  0  0  0  0  0  0  0  0
   -7.6926  -16.4359   12.5955 N   0  0  0  0  0  0  0  0  0  0  0  0
   -8.2188  -15.4020   13.4731 C   0  0  0  0  0  0  0  0  0  0  0  0
   -9.2234  -14.4695   12.7975 C   0  0  0  0  0  0  0  0  0  0  0  0
  -10.5786  -15.1269   12.9855 C   0  0  0  0  0  0  0  0  0  0  0  0
  -10.4502  -16.0538   14.1943 C   0  0  0  0  0  0  0  0  0  0  0  0
   -9.0079  -15.9311   14.6720 C   0  0  0  0  0  0  0  0  0  0  0  0
   -3.1575  -16.5397   14.6006 H   0  0  0  0  0  0  0  0  0  0  0  0
   -2.5993  -17.9554   13.7090 H   0  0  0  0  0  0  0  0  0  0  0  0
   -0.7843  -15.0732   14.5578 H   0  0  0  0  0  0  0  0  0  0  0  0
    0.5939  -14.0688   12.3739 H   0  0  0  0  0  0  0  0  0  0  0  0
   -2.0733  -16.6630   10.9031 H   0  0  0  0  0  0  0  0  0  0  0  0
   -5.6270  -18.5388   11.2535 H   0  0  0  0  0  0  0  0  0  0  0  0
   -8.2888  -18.6885   10.4990 H   0  0  0  0  0  0  0  0  0  0  0  0
   -7.3718  -14.7988   13.8070 H   0  0  0  0  0  0  0  0  0  0  0  0
   -9.0004  -14.2721   11.7437 H   0  0  0  0  0  0  0  0  0  0  0  0
   -9.2245  -13.5024   13.3166 H   0  0  0  0  0  0  0  0  0  0  0  0
  -10.8271  -15.6890   12.0808 H   0  0  0  0  0  0  0  0  0  0  0  0
  -11.3643  -14.3780   13.1306 H   0  0  0  0  0  0  0  0  0  0  0  0
  -10.6844  -17.0786   13.9015 H   0  0  0  0  0  0  0  0  0  0  0  0
  -11.1511  -15.7784   14.9893 H   0  0  0  0  0  0  0  0  0  0  0  0
   -8.9717  -15.1843   15.4761 H   0  0  0  0  0  0  0  0  0  0  0  0
   -8.6117  -16.8582   15.0874 H   0  0  0  0  0  0  0  0  0  0  0  0
  1  2  2  0
  2  3  1  0
  3  4  1  0
  4  5  1  0
  5  6  2  0
  6  7  1  0
  7  8  2  0
  8  9  1  0
  2 10  1  0
 10 11  2  0
 11 12  1  0
 12 13  2  0
 13 14  1  0
 14 15  1  0
 15 16  1  0
 16 17  1  0
 17 18  1  0
 18 19  1  0
  9  5  1  0
 14 10  1  0
 19 15  1  0
  4 20  1  0
  4 21  1  0
  6 22  1  0
  7 23  1  0
  9 24  1  0
 11 25  1  0
 12 26  1  0
 15 27  1  0
 16 28  1  0
 16 29  1  0
 17 30  1  0
 17 31  1  0
 18 32  1  0
 18 33  1  0
 19 34  1  0
 19 35  1  0
M  END
>  <Energy>  (565) 
-5.9953423548154792

>  <compound_id>  (565) 
13497

>  <target_id>  (565) 
1

>  <reference_id>  (565) 
81

>  <inspiration_ids>  (565) 
[112, 81]

>  <energy_score>  (565) 
-31.534885279318416

>  <distance_score>  (565) 
13.372070209286337

>  <path>  (565) 
/opt/xchem-fragalysis-2/maxwin/BulkDock/SCRATCH/511016/C13497-P81/C13497-P81.minimised.mol

>  <scratch_subdir>  (565) 
/opt/xchem-fragalysis-2/maxwin/BulkDock/SCRATCH/511016/C13497-P81

>  <fragmenstein_runtime>  (565) 
21.025409936904907

>  <fragmenstein_outcome>  (565) 
too moved

>  <fragmenstein_mode>  (565) 
expansion

>  <fragmenstein_error>  (565) 


$$$$
C13498-P112
     RDKit          3D

 37 39  0  0  0  0  0  0  0  0999 V2000
   -1.1275  -13.3671   14.1308 O   0  0  0  0  0  0  0  0  0  0  0  0
   -1.0611  -14.1417   15.1350 C   0  0  0  0  0  0  0  0  0  0  0  0
    0.6856  -13.7052   16.2943 N   0  0  0  0  0  0  0  0  0  0  0  0
    2.1628  -12.0896   16.2116 N   0  0  0  0  0  0  0  0  0  0  0  0
    3.8580  -11.7260   15.3548 C   0  0  0  0  0  0  0  0  0  0  0  0
    4.5184  -12.3404   14.5281 O   0  0  0  0  0  0  0  0  0  0  0  0
    4.4606  -10.4360   15.8150 C   0  0  0  0  0  0  0  0  0  0  0  0
    5.2923   -9.6013   15.0696 C   0  0  0  0  0  0  0  0  0  0  0  0
    5.6096   -8.5168   15.9011 C   0  0  0  0  0  0  0  0  0  0  0  0
    5.0787   -8.6581   17.1158 N   0  0  0  0  0  0  0  0  0  0  0  0
    4.3982   -9.8253   17.0389 N   0  0  0  0  0  0  0  0  0  0  0  0
   -2.8421  -15.2552   15.1586 C   0  0  0  0  0  0  0  0  0  0  0  0
   -3.3589  -16.6961   14.7719 C   0  0  0  0  0  0  0  0  0  0  0  0
   -4.6863  -16.5509   14.5012 C   0  0  0  0  0  0  0  0  0  0  0  0
   -5.1004  -16.2436   15.9182 N   0  0  0  0  0  0  0  0  0  0  0  0
   -6.8995  -15.8092   16.1212 C   0  0  0  0  0  0  0  0  0  0  0  0
   -8.0359  -16.6986   16.9892 C   0  0  0  0  0  0  0  0  0  0  0  0
   -9.1678  -17.1842   16.0750 C   0  0  0  0  0  0  0  0  0  0  0  0
   -9.2874  -16.0902   15.0565 C   0  0  0  0  0  0  0  0  0  0  0  0
   -7.8422  -15.7550   14.7008 C   0  0  0  0  0  0  0  0  0  0  0  0
   -3.7000  -15.5090   16.4180 N   0  0  0  0  0  0  0  0  0  0  0  0
    0.6565  -14.2735   17.1245 H   0  0  0  0  0  0  0  0  0  0  0  0
    1.9943  -11.3821   16.8966 H   0  0  0  0  0  0  0  0  0  0  0  0
    5.5947   -9.7613   14.0429 H   0  0  0  0  0  0  0  0  0  0  0  0
    6.2039   -7.6408   15.6752 H   0  0  0  0  0  0  0  0  0  0  0  0
    3.9167  -10.1450   17.8719 H   0  0  0  0  0  0  0  0  0  0  0  0
   -2.7683  -17.5222   14.4436 H   0  0  0  0  0  0  0  0  0  0  0  0
   -5.5006  -16.9043   13.8852 H   0  0  0  0  0  0  0  0  0  0  0  0
   -6.8589  -14.8121   16.5476 H   0  0  0  0  0  0  0  0  0  0  0  0
   -7.6771  -17.5150   17.6214 H   0  0  0  0  0  0  0  0  0  0  0  0
   -8.5302  -15.9794   17.6578 H   0  0  0  0  0  0  0  0  0  0  0  0
   -8.9323  -18.1342   15.5929 H   0  0  0  0  0  0  0  0  0  0  0  0
  -10.0990  -17.3139   16.6326 H   0  0  0  0  0  0  0  0  0  0  0  0
   -9.8638  -16.3994   14.1794 H   0  0  0  0  0  0  0  0  0  0  0  0
   -9.7779  -15.2113   15.4913 H   0  0  0  0  0  0  0  0  0  0  0  0
   -7.5001  -16.4529   13.9302 H   0  0  0  0  0  0  0  0  0  0  0  0
   -7.8605  -14.7718   14.2285 H   0  0  0  0  0  0  0  0  0  0  0  0
  1  2  2  0
  2  3  1  0
  3  4  1  0
  4  5  1  0
  5  6  2  0
  5  7  1  0
  7  8  2  0
  8  9  1  0
  9 10  2  0
 10 11  1  0
  2 12  1  0
 12 13  1  0
 13 14  2  0
 14 15  1  0
 15 16  1  0
 16 17  1  0
 17 18  1  0
 18 19  1  0
 19 20  1  0
 15 21  1  0
 11  7  1  0
 21 12  2  0
 20 16  1  0
  3 22  1  0
  4 23  1  0
  8 24  1  0
  9 25  1  0
 11 26  1  0
 13 27  1  0
 14 28  1  0
 16 29  1  0
 17 30  1  0
 17 31  1  0
 18 32  1  0
 18 33  1  0
 19 34  1  0
 19 35  1  0
 20 36  1  0
 20 37  1  0
M  END
>  <Energy>  (566) 
969.50676514206543

>  <compound_id>  (566) 
13498

>  <target_id>  (566) 
1

>  <reference_id>  (566) 
112

>  <inspiration_ids>  (566) 
[112, 81]

>  <energy_score>  (566) 
858.9662641065454

>  <distance_score>  (566) 
11.283949774828194

>  <path>  (566) 
/opt/xchem-fragalysis-2/maxwin/BulkDock/SCRATCH/511016/C13498-P112/C13498-P112.minimised.mol

>  <scratch_subdir>  (566) 
/opt/xchem-fragalysis-2/maxwin/BulkDock/SCRATCH/511016/C13498-P112

>  <fragmenstein_runtime>  (566) 
20.439581871032715

>  <fragmenstein_outcome>  (566) 
too moved

>  <fragmenstein_mode>  (566) 
expansion

>  <fragmenstein_error>  (566) 


$$$$
C13498-P81
     RDKit          3D

 37 39  0  0  0  0  0  0  0  0999 V2000
   -1.9180  -16.8472   19.6032 O   0  0  0  0  0  0  0  0  0  0  0  0
   -1.7762  -17.5301   20.5881 C   0  0  0  0  0  0  0  0  0  0  0  0
   -0.6000  -17.6079   21.5965 N   0  0  0  0  0  0  0  0  0  0  0  0
    0.6065  -16.8234   21.6979 N   0  0  0  0  0  0  0  0  0  0  0  0
    1.5517  -16.6356   22.8325 C   0  0  0  0  0  0  0  0  0  0  0  0
    1.4958  -17.0296   23.9650 O   0  0  0  0  0  0  0  0  0  0  0  0
    2.8608  -15.8691   22.5529 C   0  0  0  0  0  0  0  0  0  0  0  0
    3.9960  -15.7916   23.3693 C   0  0  0  0  0  0  0  0  0  0  0  0
    4.9464  -14.9634   22.7286 C   0  0  0  0  0  0  0  0  0  0  0  0
    4.4890  -14.5045   21.5712 N   0  0  0  0  0  0  0  0  0  0  0  0
    3.2522  -15.0421   21.5117 N   0  0  0  0  0  0  0  0  0  0  0  0
   -3.0206  -18.4748   20.9913 C   0  0  0  0  0  0  0  0  0  0  0  0
   -3.4151  -18.8706   22.3018 C   0  0  0  0  0  0  0  0  0  0  0  0
   -4.4695  -19.7414   22.1655 C   0  0  0  0  0  0  0  0  0  0  0  0
   -4.6889  -19.8888   20.8281 N   0  0  0  0  0  0  0  0  0  0  0  0
   -5.4788  -20.9724   20.2302 C   0  0  0  0  0  0  0  0  0  0  0  0
   -6.0693  -20.6432   18.8763 C   0  0  0  0  0  0  0  0  0  0  0  0
   -7.4696  -20.0767   19.1285 C   0  0  0  0  0  0  0  0  0  0  0  0
   -7.8859  -20.5745   20.5006 C   0  0  0  0  0  0  0  0  0  0  0  0
   -6.7355  -21.4520   20.9838 C   0  0  0  0  0  0  0  0  0  0  0  0
   -3.8219  -19.1236   20.0887 N   0  0  0  0  0  0  0  0  0  0  0  0
   -0.8481  -18.2305   22.3550 H   0  0  0  0  0  0  0  0  0  0  0  0
    0.9258  -16.2849   20.9081 H   0  0  0  0  0  0  0  0  0  0  0  0
    4.1093  -16.2953   24.3201 H   0  0  0  0  0  0  0  0  0  0  0  0
    5.9389  -14.6895   23.0615 H   0  0  0  0  0  0  0  0  0  0  0  0
    2.6371  -14.6648   20.8062 H   0  0  0  0  0  0  0  0  0  0  0  0
   -2.9784  -18.5568   23.2386 H   0  0  0  0  0  0  0  0  0  0  0  0
   -5.0292  -20.2815   22.9145 H   0  0  0  0  0  0  0  0  0  0  0  0
   -4.7618  -21.7989   20.1402 H   0  0  0  0  0  0  0  0  0  0  0  0
   -6.1466  -21.5614   18.2842 H   0  0  0  0  0  0  0  0  0  0  0  0
   -5.4259  -19.9437   18.3413 H   0  0  0  0  0  0  0  0  0  0  0  0
   -7.4401  -18.9807   19.1243 H   0  0  0  0  0  0  0  0  0  0  0  0
   -8.1791  -20.3829   18.3546 H   0  0  0  0  0  0  0  0  0  0  0  0
   -8.0228  -19.7243   21.1787 H   0  0  0  0  0  0  0  0  0  0  0  0
   -8.8304  -21.1267   20.4725 H   0  0  0  0  0  0  0  0  0  0  0  0
   -6.9404  -22.4917   20.6978 H   0  0  0  0  0  0  0  0  0  0  0  0
   -6.6507  -21.4403   22.0727 H   0  0  0  0  0  0  0  0  0  0  0  0
  1  2  2  0
  2  3  1  0
  3  4  1  0
  4  5  1  0
  5  6  2  0
  5  7  1  0
  7  8  2  0
  8  9  1  0
  9 10  2  0
 10 11  1  0
  2 12  1  0
 12 13  1  0
 13 14  2  0
 14 15  1  0
 15 16  1  0
 16 17  1  0
 17 18  1  0
 18 19  1  0
 19 20  1  0
 15 21  1  0
 11  7  1  0
 21 12  2  0
 20 16  1  0
  3 22  1  0
  4 23  1  0
  8 24  1  0
  9 25  1  0
 11 26  1  0
 13 27  1  0
 14 28  1  0
 16 29  1  0
 17 30  1  0
 17 31  1  0
 18 32  1  0
 18 33  1  0
 19 34  1  0
 19 35  1  0
 20 36  1  0
 20 37  1  0
M  END
>  <Energy>  (567) 
134.68071147719274

>  <compound_id>  (567) 
13498

>  <target_id>  (567) 
1

>  <reference_id>  (567) 
81

>  <inspiration_ids>  (567) 
[112, 81]

>  <energy_score>  (567) 
24.14021044166401

>  <distance_score>  (567) 
14.170590730817146

>  <path>  (567) 
/opt/xchem-fragalysis-2/maxwin/BulkDock/SCRATCH/511016/C13498-P81/C13498-P81.minimised.mol

>  <scratch_subdir>  (567) 
/opt/xchem-fragalysis-2/maxwin/BulkDock/SCRATCH/511016/C13498-P81

>  <fragmenstein_runtime>  (567) 
17.008952140808105

>  <fragmenstein_outcome>  (567) 
too moved

>  <fragmenstein_mode>  (567) 
expansion

>  <fragmenstein_error>  (567) 


$$$$
C13499-P112
     RDKit          3D

 43 45  0  0  0  0  0  0  0  0999 V2000
   -4.2881   -8.9126   17.1392 C   0  0  0  0  0  0  0  0  0  0  0  0
   -3.5187   -9.6757   18.2320 C   0  0  0  0  0  0  0  0  0  0  0  0
   -4.5307  -10.0602   19.2993 N   0  0  0  0  0  0  0  0  0  0  0  0
   -5.3718  -11.3173   18.9744 C   0  0  0  0  0  0  0  0  0  0  0  0
   -6.9492  -11.3892   19.2277 C   0  0  0  0  0  0  0  0  0  0  0  0
   -7.7572  -12.7500   19.0175 C   0  0  0  0  0  0  0  0  0  0  0  0
   -8.4687  -13.5048   20.0046 C   0  0  0  0  0  0  0  0  0  0  0  0
   -9.0831  -14.5555   19.3475 C   0  0  0  0  0  0  0  0  0  0  0  0
   -8.7667  -14.4104   18.0313 N   0  0  0  0  0  0  0  0  0  0  0  0
   -9.1423  -15.2602   16.9136 C   0  0  0  0  0  0  0  0  0  0  0  0
  -10.5836  -15.1138   16.3997 C   0  0  0  0  0  0  0  0  0  0  0  0
  -10.8781  -16.4110   15.6296 C   0  0  0  0  0  0  0  0  0  0  0  0
   -9.6530  -17.2918   15.8358 C   0  0  0  0  0  0  0  0  0  0  0  0
   -9.0535  -16.7719   17.1348 C   0  0  0  0  0  0  0  0  0  0  0  0
   -7.9942  -13.3127   17.8159 N   0  0  0  0  0  0  0  0  0  0  0  0
   -2.2399   -8.9080   18.6434 C   0  0  0  0  0  0  0  0  0  0  0  0
   -1.2072   -9.2103   19.5198 C   0  0  0  0  0  0  0  0  0  0  0  0
   -0.1964   -8.2455   19.2973 C   0  0  0  0  0  0  0  0  0  0  0  0
   -0.5408   -7.3738   18.3519 N   0  0  0  0  0  0  0  0  0  0  0  0
   -1.7834   -7.7624   18.0044 N   0  0  0  0  0  0  0  0  0  0  0  0
   -4.5979   -7.9203   17.4884 H   0  0  0  0  0  0  0  0  0  0  0  0
   -3.6721   -8.7782   16.2428 H   0  0  0  0  0  0  0  0  0  0  0  0
   -5.1951   -9.4422   16.8293 H   0  0  0  0  0  0  0  0  0  0  0  0
   -3.1489  -10.6211   17.8261 H   0  0  0  0  0  0  0  0  0  0  0  0
   -5.1634   -9.2749   19.4469 H   0  0  0  0  0  0  0  0  0  0  0  0
   -4.9174  -12.1068   19.5770 H   0  0  0  0  0  0  0  0  0  0  0  0
   -5.2238  -11.5642   17.9282 H   0  0  0  0  0  0  0  0  0  0  0  0
   -7.4285  -10.6400   18.5846 H   0  0  0  0  0  0  0  0  0  0  0  0
   -7.1293  -11.0787   20.2650 H   0  0  0  0  0  0  0  0  0  0  0  0
   -8.5196  -13.2964   21.0642 H   0  0  0  0  0  0  0  0  0  0  0  0
   -9.7088  -15.3579   19.7092 H   0  0  0  0  0  0  0  0  0  0  0  0
   -8.4539  -14.9970   16.0973 H   0  0  0  0  0  0  0  0  0  0  0  0
  -11.2925  -15.0040   17.2294 H   0  0  0  0  0  0  0  0  0  0  0  0
  -10.6921  -14.2306   15.7611 H   0  0  0  0  0  0  0  0  0  0  0  0
  -11.0302  -16.2065   14.5682 H   0  0  0  0  0  0  0  0  0  0  0  0
  -11.7817  -16.8846   16.0261 H   0  0  0  0  0  0  0  0  0  0  0  0
   -9.8663  -18.3557   15.8619 H   0  0  0  0  0  0  0  0  0  0  0  0
   -8.9569  -17.1315   15.0042 H   0  0  0  0  0  0  0  0  0  0  0  0
   -9.6563  -17.0942   17.9923 H   0  0  0  0  0  0  0  0  0  0  0  0
   -8.0320  -17.1061   17.3071 H   0  0  0  0  0  0  0  0  0  0  0  0
   -1.1769  -10.0499   20.2007 H   0  0  0  0  0  0  0  0  0  0  0  0
    0.7709   -8.1582   19.7755 H   0  0  0  0  0  0  0  0  0  0  0  0
   -2.2563   -7.2208   17.2887 H   0  0  0  0  0  0  0  0  0  0  0  0
  1  2  1  0
  2  3  1  0
  3  4  1  0
  4  5  1  0
  5  6  1  0
  6  7  1  0
  7  8  2  0
  8  9  1  0
  9 10  1  0
 10 11  1  0
 11 12  1  0
 12 13  1  0
 13 14  1  0
  9 15  1  0
  2 16  1  0
 16 17  2  0
 17 18  1  0
 18 19  2  0
 19 20  1  0
 15  6  2  0
 20 16  1  0
 14 10  1  0
  1 21  1  0
  1 22  1  0
  1 23  1  0
  2 24  1  0
  3 25  1  0
  4 26  1  0
  4 27  1  0
  5 28  1  0
  5 29  1  0
  7 30  1  0
  8 31  1  0
 10 32  1  0
 11 33  1  0
 11 34  1  0
 12 35  1  0
 12 36  1  0
 13 37  1  0
 13 38  1  0
 14 39  1  0
 14 40  1  0
 17 41  1  0
 18 42  1  0
 20 43  1  0
M  END
>  <Energy>  (568) 
44.500701209239331

>  <compound_id>  (568) 
13499

>  <target_id>  (568) 
1

>  <reference_id>  (568) 
112

>  <inspiration_ids>  (568) 
[112, 81]

>  <energy_score>  (568) 
-4.432282462431175

>  <distance_score>  (568) 
13.270318218163695

>  <path>  (568) 
/opt/xchem-fragalysis-2/maxwin/BulkDock/SCRATCH/511016/C13499-P112/C13499-P112.minimised.mol

>  <scratch_subdir>  (568) 
/opt/xchem-fragalysis-2/maxwin/BulkDock/SCRATCH/511016/C13499-P112

>  <fragmenstein_runtime>  (568) 
13.60707402229309

>  <fragmenstein_outcome>  (568) 
too moved

>  <fragmenstein_mode>  (568) 
expansion

>  <fragmenstein_error>  (568) 


$$$$
C13499-P81
     RDKit          3D

 43 45  0  0  0  0  0  0  0  0999 V2000
    2.7210  -13.2492   20.4178 C   0  0  0  0  0  0  0  0  0  0  0  0
    2.6556  -13.0443   18.8737 C   0  0  0  0  0  0  0  0  0  0  0  0
    1.3036  -13.7635   17.9496 N   0  0  0  0  0  0  0  0  0  0  0  0
   -0.5043  -13.4402   17.9457 C   0  0  0  0  0  0  0  0  0  0  0  0
   -1.7791  -14.4985   18.0610 C   0  0  0  0  0  0  0  0  0  0  0  0
   -2.2272  -15.9600   19.1553 C   0  0  0  0  0  0  0  0  0  0  0  0
   -2.1412  -16.2716   20.5491 C   0  0  0  0  0  0  0  0  0  0  0  0
   -2.9043  -17.4194   20.7762 C   0  0  0  0  0  0  0  0  0  0  0  0
   -3.4596  -17.7857   19.5844 N   0  0  0  0  0  0  0  0  0  0  0  0
   -4.4981  -18.7918   19.2891 C   0  0  0  0  0  0  0  0  0  0  0  0
   -4.5053  -20.1104   20.0843 C   0  0  0  0  0  0  0  0  0  0  0  0
   -5.8147  -20.7824   19.6631 C   0  0  0  0  0  0  0  0  0  0  0  0
   -6.8142  -19.6414   19.6757 C   0  0  0  0  0  0  0  0  0  0  0  0
   -5.9713  -18.3678   19.5058 C   0  0  0  0  0  0  0  0  0  0  0  0
   -3.0001  -16.9668   18.6007 N   0  0  0  0  0  0  0  0  0  0  0  0
    3.4278  -11.6094   18.6076 C   0  0  0  0  0  0  0  0  0  0  0  0
    4.3039  -11.1075   17.6451 C   0  0  0  0  0  0  0  0  0  0  0  0
    4.6555   -9.8007   18.0361 C   0  0  0  0  0  0  0  0  0  0  0  0
    4.0858   -9.4641   19.1893 N   0  0  0  0  0  0  0  0  0  0  0  0
    3.3320  -10.5464   19.4905 N   0  0  0  0  0  0  0  0  0  0  0  0
    3.7118  -12.9670   20.7980 H   0  0  0  0  0  0  0  0  0  0  0  0
    2.6033  -14.2938   20.7168 H   0  0  0  0  0  0  0  0  0  0  0  0
    1.9942  -12.6234   20.9437 H   0  0  0  0  0  0  0  0  0  0  0  0
    3.4217  -13.7673   18.5509 H   0  0  0  0  0  0  0  0  0  0  0  0
    1.6698  -13.8702   16.9832 H   0  0  0  0  0  0  0  0  0  0  0  0
   -0.7197  -13.4064   16.9358 H   0  0  0  0  0  0  0  0  0  0  0  0
   -0.8155  -12.4216   18.2656 H   0  0  0  0  0  0  0  0  0  0  0  0
   -2.3601  -13.6001   18.1996 H   0  0  0  0  0  0  0  0  0  0  0  0
   -2.1114  -14.7752   17.0429 H   0  0  0  0  0  0  0  0  0  0  0  0
   -1.6488  -15.7030   21.3245 H   0  0  0  0  0  0  0  0  0  0  0  0
   -3.1287  -17.9423   21.6941 H   0  0  0  0  0  0  0  0  0  0  0  0
   -4.3630  -19.0288   18.2284 H   0  0  0  0  0  0  0  0  0  0  0  0
   -4.5184  -19.9113   21.1636 H   0  0  0  0  0  0  0  0  0  0  0  0
   -3.6563  -20.7594   19.8955 H   0  0  0  0  0  0  0  0  0  0  0  0
   -6.1008  -21.5923   20.3402 H   0  0  0  0  0  0  0  0  0  0  0  0
   -5.7196  -21.1998   18.6546 H   0  0  0  0  0  0  0  0  0  0  0  0
   -7.3439  -19.6049   20.6347 H   0  0  0  0  0  0  0  0  0  0  0  0
   -7.5702  -19.7526   18.8929 H   0  0  0  0  0  0  0  0  0  0  0  0
   -6.3542  -17.8133   18.6602 H   0  0  0  0  0  0  0  0  0  0  0  0
   -6.0751  -17.7397   20.3979 H   0  0  0  0  0  0  0  0  0  0  0  0
    4.6266  -11.5827   16.7397 H   0  0  0  0  0  0  0  0  0  0  0  0
    5.2980   -9.0931   17.5304 H   0  0  0  0  0  0  0  0  0  0  0  0
    2.7736  -10.5075   20.3337 H   0  0  0  0  0  0  0  0  0  0  0  0
  1  2  1  0
  2  3  1  0
  3  4  1  0
  4  5  1  0
  5  6  1  0
  6  7  1  0
  7  8  2  0
  8  9  1  0
  9 10  1  0
 10 11  1  0
 11 12  1  0
 12 13  1  0
 13 14  1  0
  9 15  1  0
  2 16  1  0
 16 17  2  0
 17 18  1  0
 18 19  2  0
 19 20  1  0
 15  6  2  0
 20 16  1  0
 14 10  1  0
  1 21  1  0
  1 22  1  0
  1 23  1  0
  2 24  1  0
  3 25  1  0
  4 26  1  0
  4 27  1  0
  5 28  1  0
  5 29  1  0
  7 30  1  0
  8 31  1  0
 10 32  1  0
 11 33  1  0
 11 34  1  0
 12 35  1  0
 12 36  1  0
 13 37  1  0
 13 38  1  0
 14 39  1  0
 14 40  1  0
 17 41  1  0
 18 42  1  0
 20 43  1  0
M  END
>  <Energy>  (569) 
235.39337614014258

>  <compound_id>  (569) 
13499

>  <target_id>  (569) 
1

>  <reference_id>  (569) 
81

>  <inspiration_ids>  (569) 
[112, 81]

>  <energy_score>  (569) 
186.46039246847118

>  <distance_score>  (569) 
13.088266192607737

>  <path>  (569) 
/opt/xchem-fragalysis-2/maxwin/BulkDock/SCRATCH/511016/C13499-P81/C13499-P81.minimised.mol

>  <scratch_subdir>  (569) 
/opt/xchem-fragalysis-2/maxwin/BulkDock/SCRATCH/511016/C13499-P81

>  <fragmenstein_runtime>  (569) 
15.781068563461304

>  <fragmenstein_outcome>  (569) 
too moved

>  <fragmenstein_mode>  (569) 
expansion

>  <fragmenstein_error>  (569) 


$$$$
C13500-P112
     RDKit          3D

 42 44  0  0  0  0  0  0  0  0999 V2000
   -5.4970  -18.4478   13.9355 O   0  0  0  0  0  0  0  0  0  0  0  0
   -5.7516  -17.3863   13.4378 C   0  0  0  0  0  0  0  0  0  0  0  0
   -4.4457  -16.1152   13.9817 O   0  0  0  0  0  0  0  0  0  0  0  0
   -2.8091  -15.0296   14.7471 C   0  0  0  0  0  0  0  0  0  0  0  0
   -1.1932  -13.9385   13.6335 C   0  0  0  0  0  0  0  0  0  0  0  0
    0.0489  -12.4922   13.2257 N   0  0  0  0  0  0  0  0  0  0  0  0
    1.6138  -11.9179   14.0579 C   0  0  0  0  0  0  0  0  0  0  0  0
    1.8848  -12.6310   14.9146 O   0  0  0  0  0  0  0  0  0  0  0  0
    3.0887  -10.4910   13.9212 C   0  0  0  0  0  0  0  0  0  0  0  0
    4.1198  -10.3694   15.0438 C   0  0  0  0  0  0  0  0  0  0  0  0
    5.1912   -9.5204   14.7300 C   0  0  0  0  0  0  0  0  0  0  0  0
    5.1378   -9.0897   13.4879 N   0  0  0  0  0  0  0  0  0  0  0  0
    4.1501   -9.8208   12.9281 N   0  0  0  0  0  0  0  0  0  0  0  0
   -7.1418  -17.6165   12.2939 C   0  0  0  0  0  0  0  0  0  0  0  0
   -6.8899  -18.7429   11.3671 C   0  0  0  0  0  0  0  0  0  0  0  0
   -7.9246  -19.0876   10.5139 C   0  0  0  0  0  0  0  0  0  0  0  0
   -8.6429  -19.3981   11.6503 N   0  0  0  0  0  0  0  0  0  0  0  0
   -8.7759  -20.9545   12.1087 C   0  0  0  0  0  0  0  0  0  0  0  0
   -8.0778  -22.2825   12.7777 C   0  0  0  0  0  0  0  0  0  0  0  0
   -9.1886  -23.4278   12.8454 C   0  0  0  0  0  0  0  0  0  0  0  0
  -10.4602  -22.7083   12.5455 C   0  0  0  0  0  0  0  0  0  0  0  0
  -10.0319  -21.3406   13.0448 C   0  0  0  0  0  0  0  0  0  0  0  0
   -8.5236  -18.0441   12.3905 N   0  0  0  0  0  0  0  0  0  0  0  0
   -3.1691  -14.5933   15.7430 H   0  0  0  0  0  0  0  0  0  0  0  0
   -2.6168  -16.1060   14.9051 H   0  0  0  0  0  0  0  0  0  0  0  0
   -1.1619  -14.3268   12.4064 H   0  0  0  0  0  0  0  0  0  0  0  0
   -0.3142  -14.4470   13.0042 H   0  0  0  0  0  0  0  0  0  0  0  0
   -0.1076  -11.8899   12.4263 H   0  0  0  0  0  0  0  0  0  0  0  0
    4.0043  -10.8814   15.9935 H   0  0  0  0  0  0  0  0  0  0  0  0
    6.0130   -9.2160   15.3608 H   0  0  0  0  0  0  0  0  0  0  0  0
    3.9071   -9.6582   11.9571 H   0  0  0  0  0  0  0  0  0  0  0  0
   -6.1318  -19.4865   11.6271 H   0  0  0  0  0  0  0  0  0  0  0  0
   -7.9665  -19.7612    9.6855 H   0  0  0  0  0  0  0  0  0  0  0  0
   -7.7493  -20.6895   12.4215 H   0  0  0  0  0  0  0  0  0  0  0  0
   -7.1431  -22.6300   12.3188 H   0  0  0  0  0  0  0  0  0  0  0  0
   -7.7954  -22.0366   13.8102 H   0  0  0  0  0  0  0  0  0  0  0  0
   -9.3011  -23.8316   13.8584 H   0  0  0  0  0  0  0  0  0  0  0  0
   -9.0017  -24.2787   12.1832 H   0  0  0  0  0  0  0  0  0  0  0  0
  -10.6544  -22.7483   11.4752 H   0  0  0  0  0  0  0  0  0  0  0  0
  -11.3063  -23.1591   13.0655 H   0  0  0  0  0  0  0  0  0  0  0  0
  -10.7542  -20.5660   13.2155 H   0  0  0  0  0  0  0  0  0  0  0  0
   -9.7540  -21.5197   14.1010 H   0  0  0  0  0  0  0  0  0  0  0  0
  1  2  2  0
  2  3  1  0
  3  4  1  0
  4  5  1  0
  5  6  1  0
  6  7  1  0
  7  8  2  0
  7  9  1  0
  9 10  2  0
 10 11  1  0
 11 12  2  0
 12 13  1  0
  2 14  1  0
 14 15  1  0
 15 16  2  0
 16 17  1  0
 17 18  1  0
 18 19  1  0
 19 20  1  0
 20 21  1  0
 21 22  1  0
 17 23  1  0
 13  9  1  0
 23 14  2  0
 22 18  1  0
  4 24  1  0
  4 25  1  0
  5 26  1  0
  5 27  1  0
  6 28  1  0
 10 29  1  0
 11 30  1  0
 13 31  1  0
 15 32  1  0
 16 33  1  0
 18 34  1  0
 19 35  1  0
 19 36  1  0
 20 37  1  0
 20 38  1  0
 21 39  1  0
 21 40  1  0
 22 41  1  0
 22 42  1  0
M  END
>  <Energy>  (570) 
1234.660870513175

>  <compound_id>  (570) 
13500

>  <target_id>  (570) 
1

>  <reference_id>  (570) 
112

>  <inspiration_ids>  (570) 
[112, 81]

>  <energy_score>  (570) 
1174.8444808726138

>  <distance_score>  (570) 
9.113805715363467

>  <path>  (570) 
/opt/xchem-fragalysis-2/maxwin/BulkDock/SCRATCH/511016/C13500-P112/C13500-P112.minimised.mol

>  <scratch_subdir>  (570) 
/opt/xchem-fragalysis-2/maxwin/BulkDock/SCRATCH/511016/C13500-P112

>  <fragmenstein_runtime>  (570) 
14.16834807395935

>  <fragmenstein_outcome>  (570) 
too moved

>  <fragmenstein_mode>  (570) 
expansion

>  <fragmenstein_error>  (570) 


$$$$
C13500-P81
     RDKit          3D

 42 44  0  0  0  0  0  0  0  0999 V2000
   -4.2352  -16.9135   16.4531 O   0  0  0  0  0  0  0  0  0  0  0  0
   -4.1370  -16.2546   15.3987 C   0  0  0  0  0  0  0  0  0  0  0  0
   -2.8259  -15.0602   15.5521 O   0  0  0  0  0  0  0  0  0  0  0  0
   -1.7513  -14.2300   16.8387 C   0  0  0  0  0  0  0  0  0  0  0  0
    0.0548  -13.3766   17.2975 C   0  0  0  0  0  0  0  0  0  0  0  0
    1.9166  -13.5017   17.8989 N   0  0  0  0  0  0  0  0  0  0  0  0
    3.3069  -12.1822   17.9537 C   0  0  0  0  0  0  0  0  0  0  0  0
    3.1881  -11.0504   17.5053 O   0  0  0  0  0  0  0  0  0  0  0  0
    4.6623  -12.3285   18.5910 C   0  0  0  0  0  0  0  0  0  0  0  0
    5.8300  -11.8284   17.9508 C   0  0  0  0  0  0  0  0  0  0  0  0
    6.7729  -11.4806   18.9239 C   0  0  0  0  0  0  0  0  0  0  0  0
    6.2469  -11.5982   20.1350 N   0  0  0  0  0  0  0  0  0  0  0  0
    4.9600  -11.9063   19.8902 N   0  0  0  0  0  0  0  0  0  0  0  0
   -5.4681  -16.5672   13.9986 C   0  0  0  0  0  0  0  0  0  0  0  0
   -5.9413  -18.0067   13.2227 C   0  0  0  0  0  0  0  0  0  0  0  0
   -6.6318  -17.5125   12.1993 C   0  0  0  0  0  0  0  0  0  0  0  0
   -7.6622  -17.1740   12.8755 N   0  0  0  0  0  0  0  0  0  0  0  0
   -8.8389  -17.6955   12.0000 C   0  0  0  0  0  0  0  0  0  0  0  0
   -9.2488  -17.0915   10.5835 C   0  0  0  0  0  0  0  0  0  0  0  0
   -9.6005  -18.2425    9.6236 C   0  0  0  0  0  0  0  0  0  0  0  0
   -9.2912  -19.5454   10.3355 C   0  0  0  0  0  0  0  0  0  0  0  0
   -8.2916  -19.1314   11.2972 C   0  0  0  0  0  0  0  0  0  0  0  0
   -6.9593  -16.3198   13.9615 N   0  0  0  0  0  0  0  0  0  0  0  0
   -1.9429  -14.8654   17.6952 H   0  0  0  0  0  0  0  0  0  0  0  0
   -2.3903  -13.3670   16.9939 H   0  0  0  0  0  0  0  0  0  0  0  0
   -0.4910  -12.5604   17.8160 H   0  0  0  0  0  0  0  0  0  0  0  0
    0.0580  -13.9073   18.1269 H   0  0  0  0  0  0  0  0  0  0  0  0
    2.2754  -14.3853   18.2526 H   0  0  0  0  0  0  0  0  0  0  0  0
    5.9183  -11.5914   16.8975 H   0  0  0  0  0  0  0  0  0  0  0  0
    7.7774  -11.0949   18.8071 H   0  0  0  0  0  0  0  0  0  0  0  0
    4.3084  -11.7740   20.6545 H   0  0  0  0  0  0  0  0  0  0  0  0
   -5.2912  -18.8548   13.0311 H   0  0  0  0  0  0  0  0  0  0  0  0
   -6.8297  -17.5157   11.1517 H   0  0  0  0  0  0  0  0  0  0  0  0
   -9.7313  -17.7544   12.6148 H   0  0  0  0  0  0  0  0  0  0  0  0
  -10.0928  -16.3972   10.6718 H   0  0  0  0  0  0  0  0  0  0  0  0
   -8.4318  -16.5295   10.1126 H   0  0  0  0  0  0  0  0  0  0  0  0
   -8.9488  -18.1584    8.7428 H   0  0  0  0  0  0  0  0  0  0  0  0
  -10.6143  -18.1640    9.2275 H   0  0  0  0  0  0  0  0  0  0  0  0
   -9.9272  -19.9928   11.0884 H   0  0  0  0  0  0  0  0  0  0  0  0
   -9.0078  -20.3268    9.6305 H   0  0  0  0  0  0  0  0  0  0  0  0
   -7.9990  -19.9524   11.9365 H   0  0  0  0  0  0  0  0  0  0  0  0
   -7.4367  -19.0306   10.6340 H   0  0  0  0  0  0  0  0  0  0  0  0
  1  2  2  0
  2  3  1  0
  3  4  1  0
  4  5  1  0
  5  6  1  0
  6  7  1  0
  7  8  2  0
  7  9  1  0
  9 10  2  0
 10 11  1  0
 11 12  2  0
 12 13  1  0
  2 14  1  0
 14 15  1  0
 15 16  2  0
 16 17  1  0
 17 18  1  0
 18 19  1  0
 19 20  1  0
 20 21  1  0
 21 22  1  0
 17 23  1  0
 13  9  1  0
 23 14  2  0
 22 18  1  0
  4 24  1  0
  4 25  1  0
  5 26  1  0
  5 27  1  0
  6 28  1  0
 10 29  1  0
 11 30  1  0
 13 31  1  0
 15 32  1  0
 16 33  1  0
 18 34  1  0
 19 35  1  0
 19 36  1  0
 20 37  1  0
 20 38  1  0
 21 39  1  0
 21 40  1  0
 22 41  1  0
 22 42  1  0
M  END
>  <Energy>  (571) 
811.69378825414697

>  <compound_id>  (571) 
13500

>  <target_id>  (571) 
1

>  <reference_id>  (571) 
81

>  <inspiration_ids>  (571) 
[112, 81]

>  <energy_score>  (571) 
751.8773986135748

>  <distance_score>  (571) 
10.634289610381138

>  <path>  (571) 
/opt/xchem-fragalysis-2/maxwin/BulkDock/SCRATCH/511016/C13500-P81/C13500-P81.minimised.mol

>  <scratch_subdir>  (571) 
/opt/xchem-fragalysis-2/maxwin/BulkDock/SCRATCH/511016/C13500-P81

>  <fragmenstein_runtime>  (571) 
17.056272745132446

>  <fragmenstein_outcome>  (571) 
too moved

>  <fragmenstein_mode>  (571) 
expansion

>  <fragmenstein_error>  (571) 


$$$$
C13501-P112
     RDKit          3D

 39 41  0  0  0  0  0  0  0  0999 V2000
   -3.7380  -17.1126   16.7676 O   0  0  0  0  0  0  0  0  0  0  0  0
   -3.5294  -16.9479   17.9419 C   0  0  0  0  0  0  0  0  0  0  0  0
   -2.0199  -15.8222   18.7844 C   0  0  0  0  0  0  0  0  0  0  0  0
   -0.1854  -15.4689   18.1517 C   0  0  0  0  0  0  0  0  0  0  0  0
    0.3712  -14.2645   17.4628 C   0  0  0  0  0  0  0  0  0  0  0  0
    1.8507  -14.4978   17.5959 C   0  0  0  0  0  0  0  0  0  0  0  0
    2.2099  -15.7036   17.9698 N   0  0  0  0  0  0  0  0  0  0  0  0
    1.0579  -16.2575   18.3083 N   0  0  0  0  0  0  0  0  0  0  0  0
   -4.4683  -17.4776   19.2576 N   0  0  0  0  0  0  0  0  0  0  0  0
   -5.9792  -18.2631   19.3136 S   0  0  0  0  0  0  0  0  0  0  0  0
   -6.5446  -17.7562   20.5618 O   0  0  0  0  0  0  0  0  0  0  0  0
   -5.6153  -19.6498   19.3984 O   0  0  0  0  0  0  0  0  0  0  0  0
   -7.4576  -18.2848   18.4235 C   0  0  0  0  0  0  0  0  0  0  0  0
   -8.1994  -19.4691   18.3312 C   0  0  0  0  0  0  0  0  0  0  0  0
   -9.0502  -19.4080   17.3179 N   0  0  0  0  0  0  0  0  0  0  0  0
   -8.9967  -18.1530   16.8589 N   0  0  0  0  0  0  0  0  0  0  0  0
   -9.6489  -17.7817   15.6017 C   0  0  0  0  0  0  0  0  0  0  0  0
   -9.4717  -18.7967   14.4445 C   0  0  0  0  0  0  0  0  0  0  0  0
   -8.6231  -18.1262   13.3829 C   0  0  0  0  0  0  0  0  0  0  0  0
   -9.0452  -16.6736   13.4879 C   0  0  0  0  0  0  0  0  0  0  0  0
   -9.2399  -16.4310   14.9814 C   0  0  0  0  0  0  0  0  0  0  0  0
   -8.2451  -17.3854   17.7056 C   0  0  0  0  0  0  0  0  0  0  0  0
   -2.1662  -14.8022   18.3647 H   0  0  0  0  0  0  0  0  0  0  0  0
   -2.0288  -15.8137   19.8801 H   0  0  0  0  0  0  0  0  0  0  0  0
   -0.2750  -13.4463   17.2392 H   0  0  0  0  0  0  0  0  0  0  0  0
    2.6842  -13.8439   17.6672 H   0  0  0  0  0  0  0  0  0  0  0  0
    1.1310  -17.2240   18.5499 H   0  0  0  0  0  0  0  0  0  0  0  0
   -3.9859  -17.2586   20.1294 H   0  0  0  0  0  0  0  0  0  0  0  0
   -8.0421  -20.4149   18.8315 H   0  0  0  0  0  0  0  0  0  0  0  0
  -10.7080  -17.6923   15.8633 H   0  0  0  0  0  0  0  0  0  0  0  0
  -10.4457  -18.9625   14.0062 H   0  0  0  0  0  0  0  0  0  0  0  0
   -9.1122  -19.7906   14.7109 H   0  0  0  0  0  0  0  0  0  0  0  0
   -8.7825  -18.5384   12.3832 H   0  0  0  0  0  0  0  0  0  0  0  0
   -7.5579  -18.2405   13.5883 H   0  0  0  0  0  0  0  0  0  0  0  0
   -8.2965  -15.9992   13.0605 H   0  0  0  0  0  0  0  0  0  0  0  0
   -9.9851  -16.4937   12.9589 H   0  0  0  0  0  0  0  0  0  0  0  0
   -8.3136  -16.0253   15.3955 H   0  0  0  0  0  0  0  0  0  0  0  0
  -10.0107  -15.6703   15.1504 H   0  0  0  0  0  0  0  0  0  0  0  0
   -8.2337  -16.3228   17.5400 H   0  0  0  0  0  0  0  0  0  0  0  0
  1  2  2  0
  2  3  1  0
  3  4  1  0
  4  5  2  0
  5  6  1  0
  6  7  2  0
  7  8  1  0
  2  9  1  0
  9 10  1  0
 10 11  2  0
 10 12  2  0
 10 13  1  0
 13 14  1  0
 14 15  2  0
 15 16  1  0
 16 17  1  0
 17 18  1  0
 18 19  1  0
 19 20  1  0
 20 21  1  0
 16 22  1  0
  8  4  1  0
 22 13  2  0
 21 17  1  0
  3 23  1  0
  3 24  1  0
  5 25  1  0
  6 26  1  0
  8 27  1  0
  9 28  1  0
 14 29  1  0
 17 30  1  0
 18 31  1  0
 18 32  1  0
 19 33  1  0
 19 34  1  0
 20 35  1  0
 20 36  1  0
 21 37  1  0
 21 38  1  0
 22 39  1  0
M  END
>  <Energy>  (572) 
163.95682772372498

>  <compound_id>  (572) 
13501

>  <target_id>  (572) 
1

>  <reference_id>  (572) 
112

>  <inspiration_ids>  (572) 
[112, 81]

>  <energy_score>  (572) 
169.069892570182

>  <distance_score>  (572) 
12.8385286009094

>  <path>  (572) 
/opt/xchem-fragalysis-2/maxwin/BulkDock/SCRATCH/511016/C13501-P112/C13501-P112.minimised.mol

>  <scratch_subdir>  (572) 
/opt/xchem-fragalysis-2/maxwin/BulkDock/SCRATCH/511016/C13501-P112

>  <fragmenstein_runtime>  (572) 
16.564972639083862

>  <fragmenstein_outcome>  (572) 
too moved

>  <fragmenstein_mode>  (572) 
expansion

>  <fragmenstein_error>  (572) 


$$$$
C13501-P81
     RDKit          3D

 39 41  0  0  0  0  0  0  0  0999 V2000
    3.0730  -19.5833    8.8736 O   0  0  0  0  0  0  0  0  0  0  0  0
    2.4236  -19.8829    9.8431 C   0  0  0  0  0  0  0  0  0  0  0  0
    2.7470  -19.1657   11.2167 C   0  0  0  0  0  0  0  0  0  0  0  0
    4.0170  -18.2847   11.3708 C   0  0  0  0  0  0  0  0  0  0  0  0
    4.9925  -17.7743   10.5299 C   0  0  0  0  0  0  0  0  0  0  0  0
    5.8789  -17.0347   11.3525 C   0  0  0  0  0  0  0  0  0  0  0  0
    5.4996  -17.0364   12.6340 N   0  0  0  0  0  0  0  0  0  0  0  0
    4.3668  -17.7858   12.6170 N   0  0  0  0  0  0  0  0  0  0  0  0
    1.2951  -20.8719    9.9969 N   0  0  0  0  0  0  0  0  0  0  0  0
    0.6407  -21.9604    8.9114 S   0  0  0  0  0  0  0  0  0  0  0  0
    0.4773  -21.3125    7.6298 O   0  0  0  0  0  0  0  0  0  0  0  0
    1.3916  -23.1930    9.0444 O   0  0  0  0  0  0  0  0  0  0  0  0
   -1.0080  -22.5098    9.2650 C   0  0  0  0  0  0  0  0  0  0  0  0
   -2.1977  -21.8842    8.8327 C   0  0  0  0  0  0  0  0  0  0  0  0
   -3.3048  -22.5421    9.2065 N   0  0  0  0  0  0  0  0  0  0  0  0
   -2.8432  -23.6979    9.7260 N   0  0  0  0  0  0  0  0  0  0  0  0
   -3.7576  -24.7990   10.0161 C   0  0  0  0  0  0  0  0  0  0  0  0
   -4.6004  -24.6184   11.2776 C   0  0  0  0  0  0  0  0  0  0  0  0
   -5.8792  -25.4358   11.0776 C   0  0  0  0  0  0  0  0  0  0  0  0
   -5.8651  -25.9246    9.6374 C   0  0  0  0  0  0  0  0  0  0  0  0
   -4.7962  -25.1000    8.9299 C   0  0  0  0  0  0  0  0  0  0  0  0
   -1.4654  -23.6943    9.8381 C   0  0  0  0  0  0  0  0  0  0  0  0
    1.8773  -18.5404   11.4550 H   0  0  0  0  0  0  0  0  0  0  0  0
    2.8171  -19.9539   11.9769 H   0  0  0  0  0  0  0  0  0  0  0  0
    5.0628  -17.9260    9.4605 H   0  0  0  0  0  0  0  0  0  0  0  0
    6.7717  -16.4973   11.0603 H   0  0  0  0  0  0  0  0  0  0  0  0
    3.8269  -17.8829   13.4759 H   0  0  0  0  0  0  0  0  0  0  0  0
    1.0312  -20.9317   10.9853 H   0  0  0  0  0  0  0  0  0  0  0  0
   -2.2979  -20.9592    8.2742 H   0  0  0  0  0  0  0  0  0  0  0  0
   -3.1287  -25.6912   10.1424 H   0  0  0  0  0  0  0  0  0  0  0  0
   -4.8421  -23.5690   11.4515 H   0  0  0  0  0  0  0  0  0  0  0  0
   -4.0398  -24.9613   12.1528 H   0  0  0  0  0  0  0  0  0  0  0  0
   -6.7628  -24.8246   11.2831 H   0  0  0  0  0  0  0  0  0  0  0  0
   -5.9087  -26.2889   11.7637 H   0  0  0  0  0  0  0  0  0  0  0  0
   -5.5830  -26.9842    9.6148 H   0  0  0  0  0  0  0  0  0  0  0  0
   -6.8433  -25.8380    9.1551 H   0  0  0  0  0  0  0  0  0  0  0  0
   -4.3532  -25.6517    8.0935 H   0  0  0  0  0  0  0  0  0  0  0  0
   -5.2233  -24.1879    8.5093 H   0  0  0  0  0  0  0  0  0  0  0  0
   -0.9261  -24.5432   10.2350 H   0  0  0  0  0  0  0  0  0  0  0  0
  1  2  2  0
  2  3  1  0
  3  4  1  0
  4  5  2  0
  5  6  1  0
  6  7  2  0
  7  8  1  0
  2  9  1  0
  9 10  1  0
 10 11  2  0
 10 12  2  0
 10 13  1  0
 13 14  1  0
 14 15  2  0
 15 16  1  0
 16 17  1  0
 17 18  1  0
 18 19  1  0
 19 20  1  0
 20 21  1  0
 16 22  1  0
  8  4  1  0
 22 13  2  0
 21 17  1  0
  3 23  1  0
  3 24  1  0
  5 25  1  0
  6 26  1  0
  8 27  1  0
  9 28  1  0
 14 29  1  0
 17 30  1  0
 18 31  1  0
 18 32  1  0
 19 33  1  0
 19 34  1  0
 20 35  1  0
 20 36  1  0
 21 37  1  0
 21 38  1  0
 22 39  1  0
M  END
>  <Energy>  (573) 
-37.005301593531286

>  <compound_id>  (573) 
13501

>  <target_id>  (573) 
1

>  <reference_id>  (573) 
81

>  <inspiration_ids>  (573) 
[112, 81]

>  <energy_score>  (573) 
-31.89223674707307

>  <distance_score>  (573) 
13.539792818501692

>  <path>  (573) 
/opt/xchem-fragalysis-2/maxwin/BulkDock/SCRATCH/511016/C13501-P81/C13501-P81.minimised.mol

>  <scratch_subdir>  (573) 
/opt/xchem-fragalysis-2/maxwin/BulkDock/SCRATCH/511016/C13501-P81

>  <fragmenstein_runtime>  (573) 
28.75943398475647

>  <fragmenstein_outcome>  (573) 
too moved

>  <fragmenstein_mode>  (573) 
expansion

>  <fragmenstein_error>  (573) 


$$$$
C13502-P112
     RDKit          3D

 35 37  0  0  0  0  0  0  0  0999 V2000
   -0.3577  -19.0394   17.4207 O   0  0  0  0  0  0  0  0  0  0  0  0
   -0.9551  -17.9602   17.5121 C   0  0  0  0  0  0  0  0  0  0  0  0
    0.2268  -16.6739   17.9110 O   0  0  0  0  0  0  0  0  0  0  0  0
    1.8473  -16.9214   18.3038 C   0  0  0  0  0  0  0  0  0  0  0  0
    2.6922  -15.7533   18.8290 C   0  0  0  0  0  0  0  0  0  0  0  0
    3.4921  -15.6861   19.9660 C   0  0  0  0  0  0  0  0  0  0  0  0
    4.1981  -14.4689   19.9048 C   0  0  0  0  0  0  0  0  0  0  0  0
    3.8954  -13.7879   18.8104 N   0  0  0  0  0  0  0  0  0  0  0  0
    2.9885  -14.5748   18.1768 N   0  0  0  0  0  0  0  0  0  0  0  0
   -2.9806  -17.8528   17.2716 C   0  0  0  0  0  0  0  0  0  0  0  0
   -4.1320  -19.0558   17.9333 C   0  0  0  0  0  0  0  0  0  0  0  0
   -5.2445  -18.8384   18.6114 N   0  0  0  0  0  0  0  0  0  0  0  0
   -5.3070  -17.5281   18.5621 N   0  0  0  0  0  0  0  0  0  0  0  0
   -6.5537  -16.9132   19.0706 C   0  0  0  0  0  0  0  0  0  0  0  0
   -7.4804  -16.2380   18.0322 C   0  0  0  0  0  0  0  0  0  0  0  0
   -8.6370  -17.2030   17.7083 C   0  0  0  0  0  0  0  0  0  0  0  0
   -8.4422  -18.4145   18.6042 C   0  0  0  0  0  0  0  0  0  0  0  0
   -7.5533  -17.9055   19.7338 C   0  0  0  0  0  0  0  0  0  0  0  0
   -4.0447  -16.9833   17.8392 C   0  0  0  0  0  0  0  0  0  0  0  0
    1.8349  -17.7371   19.0292 H   0  0  0  0  0  0  0  0  0  0  0  0
    2.3658  -17.2589   17.3988 H   0  0  0  0  0  0  0  0  0  0  0  0
    3.5759  -16.4448   20.7318 H   0  0  0  0  0  0  0  0  0  0  0  0
    4.9186  -14.0646   20.6035 H   0  0  0  0  0  0  0  0  0  0  0  0
    2.6249  -14.2242   17.2923 H   0  0  0  0  0  0  0  0  0  0  0  0
   -3.8098  -19.9918   18.3499 H   0  0  0  0  0  0  0  0  0  0  0  0
   -6.2259  -16.2104   19.8433 H   0  0  0  0  0  0  0  0  0  0  0  0
   -6.9629  -15.8902   17.1375 H   0  0  0  0  0  0  0  0  0  0  0  0
   -7.9129  -15.3390   18.4916 H   0  0  0  0  0  0  0  0  0  0  0  0
   -8.6603  -17.4822   16.6515 H   0  0  0  0  0  0  0  0  0  0  0  0
   -9.5935  -16.7146   17.9289 H   0  0  0  0  0  0  0  0  0  0  0  0
   -7.9491  -19.2225   18.0536 H   0  0  0  0  0  0  0  0  0  0  0  0
   -9.3894  -18.8004   18.9883 H   0  0  0  0  0  0  0  0  0  0  0  0
   -8.1755  -17.3505   20.4489 H   0  0  0  0  0  0  0  0  0  0  0  0
   -7.0802  -18.7193   20.2916 H   0  0  0  0  0  0  0  0  0  0  0  0
   -3.7344  -16.5671   18.7488 H   0  0  0  0  0  0  0  0  0  0  0  0
  1  2  2  0
  2  3  1  0
  3  4  1  0
  4  5  1  0
  5  6  2  0
  6  7  1  0
  7  8  2  0
  8  9  1  0
  2 10  1  0
 10 11  1  0
 11 12  2  0
 12 13  1  0
 13 14  1  0
 14 15  1  0
 15 16  1  0
 16 17  1  0
 17 18  1  0
 13 19  1  0
  9  5  1  0
 19 10  2  0
 18 14  1  0
  4 20  1  0
  4 21  1  0
  6 22  1  0
  7 23  1  0
  9 24  1  0
 11 25  1  0
 14 26  1  0
 15 27  1  0
 15 28  1  0
 16 29  1  0
 16 30  1  0
 17 31  1  0
 17 32  1  0
 18 33  1  0
 18 34  1  0
 19 35  1  0
M  END
>  <Energy>  (574) 
341.74478656839131

>  <compound_id>  (574) 
13502

>  <target_id>  (574) 
1

>  <reference_id>  (574) 
112

>  <inspiration_ids>  (574) 
[112, 81]

>  <energy_score>  (574) 
297.1041534918274

>  <distance_score>  (574) 
13.423952228705474

>  <path>  (574) 
/opt/xchem-fragalysis-2/maxwin/BulkDock/SCRATCH/511016/C13502-P112/C13502-P112.minimised.mol

>  <scratch_subdir>  (574) 
/opt/xchem-fragalysis-2/maxwin/BulkDock/SCRATCH/511016/C13502-P112

>  <fragmenstein_runtime>  (574) 
11.481522798538208

>  <fragmenstein_outcome>  (574) 
too moved

>  <fragmenstein_mode>  (574) 
expansion

>  <fragmenstein_error>  (574) 


$$$$
C13502-P81
     RDKit          3D

 35 37  0  0  0  0  0  0  0  0999 V2000
    0.5713  -20.1262   13.5411 O   0  0  0  0  0  0  0  0  0  0  0  0
   -0.4936  -19.6702   13.0303 C   0  0  0  0  0  0  0  0  0  0  0  0
   -0.1514  -18.6013   12.0957 O   0  0  0  0  0  0  0  0  0  0  0  0
    1.2680  -18.7282   11.6979 C   0  0  0  0  0  0  0  0  0  0  0  0
    1.8293  -17.7016   10.7516 C   0  0  0  0  0  0  0  0  0  0  0  0
    3.1200  -17.6061   10.2422 C   0  0  0  0  0  0  0  0  0  0  0  0
    3.0915  -16.5429    9.3266 C   0  0  0  0  0  0  0  0  0  0  0  0
    1.8892  -15.9745    9.2798 N   0  0  0  0  0  0  0  0  0  0  0  0
    1.1400  -16.6941   10.1527 N   0  0  0  0  0  0  0  0  0  0  0  0
   -2.4062  -20.2545   13.4438 C   0  0  0  0  0  0  0  0  0  0  0  0
   -3.4941  -21.2261   13.7266 C   0  0  0  0  0  0  0  0  0  0  0  0
   -4.5497  -21.2857   12.7619 N   0  0  0  0  0  0  0  0  0  0  0  0
   -5.0573  -20.0590   12.6781 N   0  0  0  0  0  0  0  0  0  0  0  0
   -6.6945  -19.6683   12.2828 C   0  0  0  0  0  0  0  0  0  0  0  0
   -7.4838  -18.9136   11.1027 C   0  0  0  0  0  0  0  0  0  0  0  0
   -8.9418  -19.3471   11.0737 C   0  0  0  0  0  0  0  0  0  0  0  0
   -9.0714  -20.8035   11.4702 C   0  0  0  0  0  0  0  0  0  0  0  0
   -7.8961  -21.1278   12.3896 C   0  0  0  0  0  0  0  0  0  0  0  0
   -3.7709  -19.8020   12.3566 C   0  0  0  0  0  0  0  0  0  0  0  0
    1.9215  -18.7253   12.5736 H   0  0  0  0  0  0  0  0  0  0  0  0
    1.3749  -19.6839   11.1735 H   0  0  0  0  0  0  0  0  0  0  0  0
    3.9501  -18.2542   10.4842 H   0  0  0  0  0  0  0  0  0  0  0  0
    3.8862  -16.1595    8.7010 H   0  0  0  0  0  0  0  0  0  0  0  0
    0.1510  -16.4867   10.2501 H   0  0  0  0  0  0  0  0  0  0  0  0
   -3.2617  -22.0791   14.3111 H   0  0  0  0  0  0  0  0  0  0  0  0
   -6.6906  -18.7798   12.9297 H   0  0  0  0  0  0  0  0  0  0  0  0
   -7.4870  -17.8295   11.2929 H   0  0  0  0  0  0  0  0  0  0  0  0
   -7.1160  -19.0280   10.0915 H   0  0  0  0  0  0  0  0  0  0  0  0
   -9.5132  -18.7084   11.7482 H   0  0  0  0  0  0  0  0  0  0  0  0
   -9.3409  -19.1676   10.0700 H   0  0  0  0  0  0  0  0  0  0  0  0
  -10.0173  -21.0126   11.9774 H   0  0  0  0  0  0  0  0  0  0  0  0
   -9.0808  -21.4412   10.5836 H   0  0  0  0  0  0  0  0  0  0  0  0
   -7.5570  -22.1441   12.1739 H   0  0  0  0  0  0  0  0  0  0  0  0
   -8.2330  -21.4408   13.3941 H   0  0  0  0  0  0  0  0  0  0  0  0
   -3.7677  -19.5097   11.3271 H   0  0  0  0  0  0  0  0  0  0  0  0
  1  2  2  0
  2  3  1  0
  3  4  1  0
  4  5  1  0
  5  6  2  0
  6  7  1  0
  7  8  2  0
  8  9  1  0
  2 10  1  0
 10 11  1  0
 11 12  2  0
 12 13  1  0
 13 14  1  0
 14 15  1  0
 15 16  1  0
 16 17  1  0
 17 18  1  0
 13 19  1  0
  9  5  1  0
 19 10  2  0
 18 14  1  0
  4 20  1  0
  4 21  1  0
  6 22  1  0
  7 23  1  0
  9 24  1  0
 11 25  1  0
 14 26  1  0
 15 27  1  0
 15 28  1  0
 16 29  1  0
 16 30  1  0
 17 31  1  0
 17 32  1  0
 18 33  1  0
 18 34  1  0
 19 35  1  0
M  END
>  <Energy>  (575) 
425.67627465020564

>  <compound_id>  (575) 
13502

>  <target_id>  (575) 
1

>  <reference_id>  (575) 
81

>  <inspiration_ids>  (575) 
[112, 81]

>  <energy_score>  (575) 
381.03564157364656

>  <distance_score>  (575) 
13.142183264498636

>  <path>  (575) 
/opt/xchem-fragalysis-2/maxwin/BulkDock/SCRATCH/511016/C13502-P81/C13502-P81.minimised.mol

>  <scratch_subdir>  (575) 
/opt/xchem-fragalysis-2/maxwin/BulkDock/SCRATCH/511016/C13502-P81

>  <fragmenstein_runtime>  (575) 
8.46908187866211

>  <fragmenstein_outcome>  (575) 
too moved

>  <fragmenstein_mode>  (575) 
expansion

>  <fragmenstein_error>  (575) 


$$$$
C13503-P112
     RDKit          3D

 36 38  0  0  0  0  0  0  0  0999 V2000
   -0.9132  -11.3949   11.1415 O   0  0  0  0  0  0  0  0  0  0  0  0
   -0.4698  -12.2814   11.8558 C   0  0  0  0  0  0  0  0  0  0  0  0
    0.6384  -11.7727   12.6355 C   0  0  0  0  0  0  0  0  0  0  0  0
    1.3341  -10.3285   12.3515 C   0  0  0  0  0  0  0  0  0  0  0  0
    1.4271   -9.4865   11.2537 C   0  0  0  0  0  0  0  0  0  0  0  0
    2.2561   -8.4083   11.6399 C   0  0  0  0  0  0  0  0  0  0  0  0
    2.6649   -8.5203   12.9014 N   0  0  0  0  0  0  0  0  0  0  0  0
    2.0650   -9.6496   13.3201 N   0  0  0  0  0  0  0  0  0  0  0  0
   -1.0422  -13.8582   12.1366 N   0  0  0  0  0  0  0  0  0  0  0  0
   -2.5558  -14.6574   11.5923 C   0  0  0  0  0  0  0  0  0  0  0  0
   -3.3855  -15.1960   10.7952 C   0  0  0  0  0  0  0  0  0  0  0  0
   -5.1147  -15.4061   11.3215 N   0  0  0  0  0  0  0  0  0  0  0  0
   -5.3820  -14.9146   12.5056 N   0  0  0  0  0  0  0  0  0  0  0  0
   -6.8566  -14.7785   12.6650 C   0  0  0  0  0  0  0  0  0  0  0  0
   -7.7241  -14.6617   11.3552 C   0  0  0  0  0  0  0  0  0  0  0  0
   -8.3975  -16.0145   11.1243 C   0  0  0  0  0  0  0  0  0  0  0  0
   -8.7295  -16.4594   12.5254 C   0  0  0  0  0  0  0  0  0  0  0  0
   -7.5087  -16.0363   13.3288 C   0  0  0  0  0  0  0  0  0  0  0  0
   -3.9369  -14.4407   12.7220 C   0  0  0  0  0  0  0  0  0  0  0  0
    1.0166  -12.5201   13.3193 H   0  0  0  0  0  0  0  0  0  0  0  0
   -0.0105  -11.2923   13.3916 H   0  0  0  0  0  0  0  0  0  0  0  0
    0.9554   -9.6212   10.2919 H   0  0  0  0  0  0  0  0  0  0  0  0
    2.5680   -7.5549   11.0518 H   0  0  0  0  0  0  0  0  0  0  0  0
    2.2720   -9.9534   14.2618 H   0  0  0  0  0  0  0  0  0  0  0  0
   -0.3989  -14.3551   12.7156 H   0  0  0  0  0  0  0  0  0  0  0  0
   -3.1554  -15.4503    9.7459 H   0  0  0  0  0  0  0  0  0  0  0  0
   -7.0348  -13.8471   13.1888 H   0  0  0  0  0  0  0  0  0  0  0  0
   -7.1827  -14.3176   10.4700 H   0  0  0  0  0  0  0  0  0  0  0  0
   -8.5116  -13.9176   11.5398 H   0  0  0  0  0  0  0  0  0  0  0  0
   -9.2864  -15.9303   10.4925 H   0  0  0  0  0  0  0  0  0  0  0  0
   -7.7059  -16.7174   10.6500 H   0  0  0  0  0  0  0  0  0  0  0  0
   -9.6236  -15.9423   12.8920 H   0  0  0  0  0  0  0  0  0  0  0  0
   -8.8968  -17.5366   12.5955 H   0  0  0  0  0  0  0  0  0  0  0  0
   -6.7913  -16.8635   13.3317 H   0  0  0  0  0  0  0  0  0  0  0  0
   -7.8196  -15.8342   14.3589 H   0  0  0  0  0  0  0  0  0  0  0  0
   -3.8481  -13.7649   13.4903 H   0  0  0  0  0  0  0  0  0  0  0  0
  1  2  2  0
  2  3  1  0
  3  4  1  0
  4  5  2  0
  5  6  1  0
  6  7  2  0
  7  8  1  0
  2  9  1  0
  9 10  1  0
 10 11  1  0
 11 12  2  0
 12 13  1  0
 13 14  1  0
 14 15  1  0
 15 16  1  0
 16 17  1  0
 17 18  1  0
 13 19  1  0
  8  4  1  0
 19 10  2  0
 18 14  1  0
  3 20  1  0
  3 21  1  0
  5 22  1  0
  6 23  1  0
  8 24  1  0
  9 25  1  0
 11 26  1  0
 14 27  1  0
 15 28  1  0
 15 29  1  0
 16 30  1  0
 16 31  1  0
 17 32  1  0
 17 33  1  0
 18 34  1  0
 18 35  1  0
 19 36  1  0
M  END
>  <Energy>  (576) 
417.58900957423748

>  <compound_id>  (576) 
13503

>  <target_id>  (576) 
1

>  <reference_id>  (576) 
112

>  <inspiration_ids>  (576) 
[112, 81]

>  <energy_score>  (576) 
354.5453225133828

>  <distance_score>  (576) 
12.678140763377092

>  <path>  (576) 
/opt/xchem-fragalysis-2/maxwin/BulkDock/SCRATCH/511016/C13503-P112/C13503-P112.minimised.mol

>  <scratch_subdir>  (576) 
/opt/xchem-fragalysis-2/maxwin/BulkDock/SCRATCH/511016/C13503-P112

>  <fragmenstein_runtime>  (576) 
14.672889709472656

>  <fragmenstein_outcome>  (576) 
too moved

>  <fragmenstein_mode>  (576) 
expansion

>  <fragmenstein_error>  (576) 


$$$$
C13503-P81
     RDKit          3D

 36 38  0  0  0  0  0  0  0  0999 V2000
   -5.9407   -9.5824   17.7787 O   0  0  0  0  0  0  0  0  0  0  0  0
   -5.4978  -10.3836   18.5574 C   0  0  0  0  0  0  0  0  0  0  0  0
   -4.0565  -10.1481   19.1864 C   0  0  0  0  0  0  0  0  0  0  0  0
   -3.0609   -9.1709   18.5044 C   0  0  0  0  0  0  0  0  0  0  0  0
   -3.0327   -8.4677   17.3100 C   0  0  0  0  0  0  0  0  0  0  0  0
   -1.8217   -7.7356   17.3044 C   0  0  0  0  0  0  0  0  0  0  0  0
   -1.0995   -7.9652   18.4005 N   0  0  0  0  0  0  0  0  0  0  0  0
   -1.8709   -8.8073   19.1176 N   0  0  0  0  0  0  0  0  0  0  0  0
   -6.0809  -11.6517   19.0800 N   0  0  0  0  0  0  0  0  0  0  0  0
   -7.2680  -12.3218   18.7466 C   0  0  0  0  0  0  0  0  0  0  0  0
   -8.4107  -11.8544   18.0539 C   0  0  0  0  0  0  0  0  0  0  0  0
   -9.3069  -12.8114   17.7890 N   0  0  0  0  0  0  0  0  0  0  0  0
   -8.7292  -13.9389   18.2409 N   0  0  0  0  0  0  0  0  0  0  0  0
   -9.4456  -15.1850   18.0208 C   0  0  0  0  0  0  0  0  0  0  0  0
   -8.6932  -16.4859   18.2800 C   0  0  0  0  0  0  0  0  0  0  0  0
   -9.5859  -17.5438   17.6468 C   0  0  0  0  0  0  0  0  0  0  0  0
  -10.3151  -16.8503   16.4937 C   0  0  0  0  0  0  0  0  0  0  0  0
   -9.9041  -15.3883   16.5673 C   0  0  0  0  0  0  0  0  0  0  0  0
   -7.5628  -13.6718   18.9330 C   0  0  0  0  0  0  0  0  0  0  0  0
   -3.5438  -11.1135   19.2498 H   0  0  0  0  0  0  0  0  0  0  0  0
   -4.2271   -9.7902   20.2097 H   0  0  0  0  0  0  0  0  0  0  0  0
   -3.8030   -8.4637   16.5481 H   0  0  0  0  0  0  0  0  0  0  0  0
   -1.4462   -7.0579   16.5478 H   0  0  0  0  0  0  0  0  0  0  0  0
   -1.5292   -9.0993   20.0271 H   0  0  0  0  0  0  0  0  0  0  0  0
   -5.3971  -12.1181   19.6578 H   0  0  0  0  0  0  0  0  0  0  0  0
   -8.6064  -10.8467   17.7076 H   0  0  0  0  0  0  0  0  0  0  0  0
  -10.3249  -15.1386   18.6786 H   0  0  0  0  0  0  0  0  0  0  0  0
   -7.7129  -16.4651   17.7956 H   0  0  0  0  0  0  0  0  0  0  0  0
   -8.5327  -16.6715   19.3468 H   0  0  0  0  0  0  0  0  0  0  0  0
   -9.0139  -18.4155   17.3214 H   0  0  0  0  0  0  0  0  0  0  0  0
  -10.3086  -17.8820   18.3983 H   0  0  0  0  0  0  0  0  0  0  0  0
  -10.0600  -17.2841   15.5232 H   0  0  0  0  0  0  0  0  0  0  0  0
  -11.4001  -16.9310   16.6193 H   0  0  0  0  0  0  0  0  0  0  0  0
   -9.0767  -15.1957   15.8719 H   0  0  0  0  0  0  0  0  0  0  0  0
  -10.7281  -14.7226   16.2899 H   0  0  0  0  0  0  0  0  0  0  0  0
   -7.0178  -14.4676   19.4158 H   0  0  0  0  0  0  0  0  0  0  0  0
  1  2  2  0
  2  3  1  0
  3  4  1  0
  4  5  2  0
  5  6  1  0
  6  7  2  0
  7  8  1  0
  2  9  1  0
  9 10  1  0
 10 11  1  0
 11 12  2  0
 12 13  1  0
 13 14  1  0
 14 15  1  0
 15 16  1  0
 16 17  1  0
 17 18  1  0
 13 19  1  0
  8  4  1  0
 19 10  2  0
 18 14  1  0
  3 20  1  0
  3 21  1  0
  5 22  1  0
  6 23  1  0
  8 24  1  0
  9 25  1  0
 11 26  1  0
 14 27  1  0
 15 28  1  0
 15 29  1  0
 16 30  1  0
 16 31  1  0
 17 32  1  0
 17 33  1  0
 18 34  1  0
 18 35  1  0
 19 36  1  0
M  END
>  <Energy>  (577) 
50.635152900343471

>  <compound_id>  (577) 
13503

>  <target_id>  (577) 
1

>  <reference_id>  (577) 
81

>  <inspiration_ids>  (577) 
[112, 81]

>  <energy_score>  (577) 
-12.408534160508282

>  <distance_score>  (577) 
13.903937999390518

>  <path>  (577) 
/opt/xchem-fragalysis-2/maxwin/BulkDock/SCRATCH/511016/C13503-P81/C13503-P81.minimised.mol

>  <scratch_subdir>  (577) 
/opt/xchem-fragalysis-2/maxwin/BulkDock/SCRATCH/511016/C13503-P81

>  <fragmenstein_runtime>  (577) 
27.428661346435547

>  <fragmenstein_outcome>  (577) 
too moved

>  <fragmenstein_mode>  (577) 
expansion

>  <fragmenstein_error>  (577) 


$$$$
C13504-P112
     RDKit          3D

 40 42  0  0  0  0  0  0  0  0999 V2000
   -0.8728  -12.5381   17.6765 O   0  0  0  0  0  0  0  0  0  0  0  0
   -0.2974  -13.6627   16.8990 S   0  0  0  0  0  0  0  0  0  0  0  0
    0.1491  -14.7506   17.6656 O   0  0  0  0  0  0  0  0  0  0  0  0
   -2.5084  -14.0536   16.5317 N   0  0  0  0  0  0  0  0  0  0  0  0
   -3.5956  -15.6966   16.0473 C   0  0  0  0  0  0  0  0  0  0  0  0
   -4.5509  -16.4837   14.5591 C   0  0  0  0  0  0  0  0  0  0  0  0
   -6.1866  -16.4454   13.6195 C   0  0  0  0  0  0  0  0  0  0  0  0
   -6.5781  -15.9795   12.2918 C   0  0  0  0  0  0  0  0  0  0  0  0
   -7.8087  -16.5392   11.9651 C   0  0  0  0  0  0  0  0  0  0  0  0
   -8.0961  -17.2045   13.1042 N   0  0  0  0  0  0  0  0  0  0  0  0
   -8.1984  -18.6332   13.2563 C   0  0  0  0  0  0  0  0  0  0  0  0
   -8.2217  -19.5517   12.0492 C   0  0  0  0  0  0  0  0  0  0  0  0
   -8.5066  -20.8916   12.7117 C   0  0  0  0  0  0  0  0  0  0  0  0
   -9.3670  -20.5943   13.9162 C   0  0  0  0  0  0  0  0  0  0  0  0
   -9.3152  -19.0970   14.1636 C   0  0  0  0  0  0  0  0  0  0  0  0
   -7.4720  -16.5305   14.0998 N   0  0  0  0  0  0  0  0  0  0  0  0
    1.6524  -12.6854   15.7386 C   0  0  0  0  0  0  0  0  0  0  0  0
    2.1377  -12.3586   14.2079 C   0  0  0  0  0  0  0  0  0  0  0  0
    3.5470  -11.3849   14.2832 C   0  0  0  0  0  0  0  0  0  0  0  0
    3.9574  -11.0874   15.5123 N   0  0  0  0  0  0  0  0  0  0  0  0
    2.9508  -11.5651   16.3914 N   0  0  0  0  0  0  0  0  0  0  0  0
   -2.7169  -13.8714   17.5155 H   0  0  0  0  0  0  0  0  0  0  0  0
   -3.6189  -16.4286   16.8543 H   0  0  0  0  0  0  0  0  0  0  0  0
   -2.9289  -15.9870   15.2446 H   0  0  0  0  0  0  0  0  0  0  0  0
   -4.0403  -16.0108   13.7850 H   0  0  0  0  0  0  0  0  0  0  0  0
   -3.9614  -17.3942   14.4188 H   0  0  0  0  0  0  0  0  0  0  0  0
   -6.0195  -15.4675   11.5422 H   0  0  0  0  0  0  0  0  0  0  0  0
   -8.3638  -16.6162   11.0415 H   0  0  0  0  0  0  0  0  0  0  0  0
   -7.2549  -18.9031   13.7200 H   0  0  0  0  0  0  0  0  0  0  0  0
   -8.9645  -19.2384   11.3188 H   0  0  0  0  0  0  0  0  0  0  0  0
   -7.2616  -19.5776   11.5245 H   0  0  0  0  0  0  0  0  0  0  0  0
   -9.0458  -21.5837   12.0769 H   0  0  0  0  0  0  0  0  0  0  0  0
   -7.5725  -21.3725   13.0190 H   0  0  0  0  0  0  0  0  0  0  0  0
  -10.3714  -20.8905   13.6468 H   0  0  0  0  0  0  0  0  0  0  0  0
   -9.0450  -21.1768   14.7845 H   0  0  0  0  0  0  0  0  0  0  0  0
   -9.1506  -18.8472   15.2149 H   0  0  0  0  0  0  0  0  0  0  0  0
  -10.2554  -18.6022   13.9399 H   0  0  0  0  0  0  0  0  0  0  0  0
    1.5259  -12.4838   13.3080 H   0  0  0  0  0  0  0  0  0  0  0  0
    4.0135  -10.9232   13.4171 H   0  0  0  0  0  0  0  0  0  0  0  0
    3.0695  -11.4985   17.3893 H   0  0  0  0  0  0  0  0  0  0  0  0
  1  2  2  0
  2  3  2  0
  2  4  1  0
  4  5  1  0
  5  6  1  0
  6  7  1  0
  7  8  1  0
  8  9  2  0
  9 10  1  0
 10 11  1  0
 11 12  1  0
 12 13  1  0
 13 14  1  0
 14 15  1  0
 10 16  1  0
  2 17  1  0
 17 18  2  0
 18 19  1  0
 19 20  2  0
 20 21  1  0
 16  7  2  0
 21 17  1  0
 15 11  1  0
  4 22  1  0
  5 23  1  0
  5 24  1  0
  6 25  1  0
  6 26  1  0
  8 27  1  0
  9 28  1  0
 11 29  1  0
 12 30  1  0
 12 31  1  0
 13 32  1  0
 13 33  1  0
 14 34  1  0
 14 35  1  0
 15 36  1  0
 15 37  1  0
 18 38  1  0
 19 39  1  0
 21 40  1  0
M  END
>  <Energy>  (578) 
588.73473827097882

>  <compound_id>  (578) 
13504

>  <target_id>  (578) 
1

>  <reference_id>  (578) 
112

>  <inspiration_ids>  (578) 
[112, 81]

>  <energy_score>  (578) 
463.9592581656449

>  <distance_score>  (578) 
11.021817742634049

>  <path>  (578) 
/opt/xchem-fragalysis-2/maxwin/BulkDock/SCRATCH/511016/C13504-P112/C13504-P112.minimised.mol

>  <scratch_subdir>  (578) 
/opt/xchem-fragalysis-2/maxwin/BulkDock/SCRATCH/511016/C13504-P112

>  <fragmenstein_runtime>  (578) 
15.68725061416626

>  <fragmenstein_outcome>  (578) 
too moved

>  <fragmenstein_mode>  (578) 
expansion

>  <fragmenstein_error>  (578) 


$$$$
C13504-P81
     RDKit          3D

 40 42  0  0  0  0  0  0  0  0999 V2000
    5.7474  -12.6671   17.9400 O   0  0  0  0  0  0  0  0  0  0  0  0
    4.6971  -12.0717   18.7357 S   0  0  0  0  0  0  0  0  0  0  0  0
    4.6644  -12.0922   20.1761 O   0  0  0  0  0  0  0  0  0  0  0  0
    3.1651  -12.3318   17.9915 N   0  0  0  0  0  0  0  0  0  0  0  0
    1.8531  -13.8698   17.9306 C   0  0  0  0  0  0  0  0  0  0  0  0
   -0.0442  -13.5177   17.3096 C   0  0  0  0  0  0  0  0  0  0  0  0
   -1.7048  -14.3238   16.4316 C   0  0  0  0  0  0  0  0  0  0  0  0
   -2.4753  -15.0660   17.1510 C   0  0  0  0  0  0  0  0  0  0  0  0
   -3.8369  -15.8935   16.6973 C   0  0  0  0  0  0  0  0  0  0  0  0
   -3.8028  -16.0712   15.3018 N   0  0  0  0  0  0  0  0  0  0  0  0
   -5.2970  -16.3426   14.1251 C   0  0  0  0  0  0  0  0  0  0  0  0
   -6.2432  -17.6520   13.1924 C   0  0  0  0  0  0  0  0  0  0  0  0
   -7.4852  -17.1252   12.3519 C   0  0  0  0  0  0  0  0  0  0  0  0
   -7.1447  -15.8330   11.7476 C   0  0  0  0  0  0  0  0  0  0  0  0
   -6.3766  -15.2785   12.9008 C   0  0  0  0  0  0  0  0  0  0  0  0
   -2.4862  -14.9125   15.2015 N   0  0  0  0  0  0  0  0  0  0  0  0
    4.9717  -10.3087   18.4150 C   0  0  0  0  0  0  0  0  0  0  0  0
    4.9261   -9.1692   19.2027 C   0  0  0  0  0  0  0  0  0  0  0  0
    5.1245   -8.0887   18.3270 C   0  0  0  0  0  0  0  0  0  0  0  0
    5.3391   -8.4971   17.0755 N   0  0  0  0  0  0  0  0  0  0  0  0
    5.2586   -9.8459   17.1602 N   0  0  0  0  0  0  0  0  0  0  0  0
    3.3462  -12.1334   17.0025 H   0  0  0  0  0  0  0  0  0  0  0  0
    2.2119  -14.6658   17.2610 H   0  0  0  0  0  0  0  0  0  0  0  0
    2.2408  -14.4055   18.8031 H   0  0  0  0  0  0  0  0  0  0  0  0
    0.5955  -13.9027   16.5140 H   0  0  0  0  0  0  0  0  0  0  0  0
   -0.5472  -12.6644   17.7417 H   0  0  0  0  0  0  0  0  0  0  0  0
   -2.0591  -15.2429   18.1740 H   0  0  0  0  0  0  0  0  0  0  0  0
   -4.4475  -16.5314   17.3139 H   0  0  0  0  0  0  0  0  0  0  0  0
   -4.3553  -16.1988   13.7243 H   0  0  0  0  0  0  0  0  0  0  0  0
   -5.7133  -18.4774   12.6991 H   0  0  0  0  0  0  0  0  0  0  0  0
   -6.7232  -18.3458   13.7871 H   0  0  0  0  0  0  0  0  0  0  0  0
   -8.3272  -16.8444   12.9947 H   0  0  0  0  0  0  0  0  0  0  0  0
   -7.8462  -17.8609   11.6243 H   0  0  0  0  0  0  0  0  0  0  0  0
   -8.0554  -15.2434   11.5681 H   0  0  0  0  0  0  0  0  0  0  0  0
   -6.6595  -15.8218   10.7844 H   0  0  0  0  0  0  0  0  0  0  0  0
   -6.0230  -14.2868   12.6891 H   0  0  0  0  0  0  0  0  0  0  0  0
   -7.2888  -15.0520   13.5224 H   0  0  0  0  0  0  0  0  0  0  0  0
    4.7145   -9.1467   20.2632 H   0  0  0  0  0  0  0  0  0  0  0  0
    5.1179   -7.0286   18.5470 H   0  0  0  0  0  0  0  0  0  0  0  0
    5.4086  -10.3958   16.3202 H   0  0  0  0  0  0  0  0  0  0  0  0
  1  2  2  0
  2  3  2  0
  2  4  1  0
  4  5  1  0
  5  6  1  0
  6  7  1  0
  7  8  1  0
  8  9  2  0
  9 10  1  0
 10 11  1  0
 11 12  1  0
 12 13  1  0
 13 14  1  0
 14 15  1  0
 10 16  1  0
  2 17  1  0
 17 18  2  0
 18 19  1  0
 19 20  2  0
 20 21  1  0
 16  7  2  0
 21 17  1  0
 15 11  1  0
  4 22  1  0
  5 23  1  0
  5 24  1  0
  6 25  1  0
  6 26  1  0
  8 27  1  0
  9 28  1  0
 11 29  1  0
 12 30  1  0
 12 31  1  0
 13 32  1  0
 13 33  1  0
 14 34  1  0
 14 35  1  0
 15 36  1  0
 15 37  1  0
 18 38  1  0
 19 39  1  0
 21 40  1  0
M  END
>  <Energy>  (579) 
694.92563868881268

>  <compound_id>  (579) 
13504

>  <target_id>  (579) 
1

>  <reference_id>  (579) 
81

>  <inspiration_ids>  (579) 
[112, 81]

>  <energy_score>  (579) 
570.1501585834891

>  <distance_score>  (579) 
12.0904165041399

>  <path>  (579) 
/opt/xchem-fragalysis-2/maxwin/BulkDock/SCRATCH/511016/C13504-P81/C13504-P81.minimised.mol

>  <scratch_subdir>  (579) 
/opt/xchem-fragalysis-2/maxwin/BulkDock/SCRATCH/511016/C13504-P81

>  <fragmenstein_runtime>  (579) 
17.588000535964966

>  <fragmenstein_outcome>  (579) 
too moved

>  <fragmenstein_mode>  (579) 
expansion

>  <fragmenstein_error>  (579) 


$$$$
C13505-P112
     RDKit          3D

 45 46  0  0  0  0  0  0  0  0999 V2000
    0.7461  -14.1612   15.7089 C   0  0  0  0  0  0  0  0  0  0  0  0
   -0.0795  -13.7302   13.7013 C   0  0  0  0  0  0  0  0  0  0  0  0
    0.7734  -12.0367   12.9320 C   0  0  0  0  0  0  0  0  0  0  0  0
    2.3508  -10.6966   12.3595 C   0  0  0  0  0  0  0  0  0  0  0  0
    1.4221  -10.1595   11.1289 C   0  0  0  0  0  0  0  0  0  0  0  0
    3.8332   -9.4383   13.1122 N   0  0  0  0  0  0  0  0  0  0  0  0
    5.3802   -9.7285   13.8435 C   0  0  0  0  0  0  0  0  0  0  0  0
    5.7277  -10.8262   14.0722 O   0  0  0  0  0  0  0  0  0  0  0  0
    6.5368   -7.8716   14.0815 C   0  0  0  0  0  0  0  0  0  0  0  0
    8.1442   -6.6976   14.6039 N   0  0  0  0  0  0  0  0  0  0  0  0
    9.7258   -7.0499   15.1715 C   0  0  0  0  0  0  0  0  0  0  0  0
   10.9186   -5.6929   15.2375 C   0  0  0  0  0  0  0  0  0  0  0  0
   10.2356   -4.4911   14.6979 C   0  0  0  0  0  0  0  0  0  0  0  0
    8.7429   -5.0267   14.3384 N   0  0  0  0  0  0  0  0  0  0  0  0
   -1.4945  -14.3520   15.0858 N   0  0  0  0  0  0  0  0  0  0  0  0
   -2.9611  -15.7264   15.0470 C   0  0  0  0  0  0  0  0  0  0  0  0
   -3.3950  -16.4580   14.1206 O   0  0  0  0  0  0  0  0  0  0  0  0
   -3.7660  -16.1592   16.5575 C   0  0  0  0  0  0  0  0  0  0  0  0
   -4.0767  -17.7175   16.5051 C   0  0  0  0  0  0  0  0  0  0  0  0
   -4.1090  -18.6503   17.5237 C   0  0  0  0  0  0  0  0  0  0  0  0
   -4.1737  -19.8809   16.8657 C   0  0  0  0  0  0  0  0  0  0  0  0
   -4.2977  -19.7347   15.5433 N   0  0  0  0  0  0  0  0  0  0  0  0
   -4.2925  -18.4145   15.3511 N   0  0  0  0  0  0  0  0  0  0  0  0
    1.4158  -13.3039   15.9450 H   0  0  0  0  0  0  0  0  0  0  0  0
    0.0833  -14.0246   16.6280 H   0  0  0  0  0  0  0  0  0  0  0  0
    1.7118  -14.7205   16.0075 H   0  0  0  0  0  0  0  0  0  0  0  0
   -0.9127  -13.0987   13.5216 H   0  0  0  0  0  0  0  0  0  0  0  0
   -0.1787  -11.5380   12.6269 H   0  0  0  0  0  0  0  0  0  0  0  0
    0.7472  -12.5912   11.9454 H   0  0  0  0  0  0  0  0  0  0  0  0
    2.9059  -10.9708   11.3923 H   0  0  0  0  0  0  0  0  0  0  0  0
    1.8998  -10.4471   10.2042 H   0  0  0  0  0  0  0  0  0  0  0  0
    1.1672   -9.1133   11.0555 H   0  0  0  0  0  0  0  0  0  0  0  0
    0.5131  -10.7241   11.1011 H   0  0  0  0  0  0  0  0  0  0  0  0
    3.6815   -8.4403   13.0739 H   0  0  0  0  0  0  0  0  0  0  0  0
    6.8896   -7.5997   13.0534 H   0  0  0  0  0  0  0  0  0  0  0  0
    5.8535   -7.0787   14.2257 H   0  0  0  0  0  0  0  0  0  0  0  0
    9.8295   -8.1335   15.3399 H   0  0  0  0  0  0  0  0  0  0  0  0
   11.8938   -5.7595   15.7176 H   0  0  0  0  0  0  0  0  0  0  0  0
   10.4721   -3.4395   14.5962 H   0  0  0  0  0  0  0  0  0  0  0  0
   -1.4469  -13.8666   15.9925 H   0  0  0  0  0  0  0  0  0  0  0  0
   -3.1455  -16.2100   17.4090 H   0  0  0  0  0  0  0  0  0  0  0  0
   -4.7866  -15.9520   16.8052 H   0  0  0  0  0  0  0  0  0  0  0  0
   -3.9862  -18.4690   18.5810 H   0  0  0  0  0  0  0  0  0  0  0  0
   -4.1346  -20.8784   17.2862 H   0  0  0  0  0  0  0  0  0  0  0  0
   -4.3078  -18.0392   14.4035 H   0  0  0  0  0  0  0  0  0  0  0  0
  1  2  1  0
  2  3  1  0
  3  4  1  0
  4  5  1  0
  4  6  1  0
  6  7  1  0
  7  8  2  0
  7  9  1  0
  9 10  1  0
 10 11  1  0
 11 12  2  0
 12 13  1  0
 13 14  2  0
  2 15  1  0
 15 16  1  0
 16 17  2  0
 16 18  1  0
 18 19  1  0
 19 20  2  0
 20 21  1  0
 21 22  2  0
 22 23  1  0
 14 10  1  0
 23 19  1  0
  1 24  1  0
  1 25  1  0
  1 26  1  0
  2 27  1  0
  3 28  1  0
  3 29  1  0
  4 30  1  0
  5 31  1  0
  5 32  1  0
  5 33  1  0
  6 34  1  0
  9 35  1  0
  9 36  1  0
 11 37  1  0
 12 38  1  0
 13 39  1  0
 15 40  1  0
 18 41  1  0
 18 42  1  0
 20 43  1  0
 21 44  1  0
 23 45  1  0
M  END
>  <Energy>  (580) 
1480.0547896181467

>  <compound_id>  (580) 
13505

>  <target_id>  (580) 
1

>  <reference_id>  (580) 
112

>  <inspiration_ids>  (580) 
[112, 81]

>  <energy_score>  (580) 
1404.5980045658594

>  <distance_score>  (580) 
9.037497812968594

>  <path>  (580) 
/opt/xchem-fragalysis-2/maxwin/BulkDock/SCRATCH/511016/C13505-P112/C13505-P112.minimised.mol

>  <scratch_subdir>  (580) 
/opt/xchem-fragalysis-2/maxwin/BulkDock/SCRATCH/511016/C13505-P112

>  <fragmenstein_runtime>  (580) 
24.61425542831421

>  <fragmenstein_outcome>  (580) 
too moved

>  <fragmenstein_mode>  (580) 
expansion

>  <fragmenstein_error>  (580) 


$$$$
C13505-P81
     RDKit          3D

 45 46  0  0  0  0  0  0  0  0999 V2000
   -1.6479  -14.0907   15.7831 C   0  0  0  0  0  0  0  0  0  0  0  0
   -1.1604  -13.3353   13.9252 C   0  0  0  0  0  0  0  0  0  0  0  0
    0.3550  -12.2169   12.9674 C   0  0  0  0  0  0  0  0  0  0  0  0
    2.1869  -11.0618   12.7717 C   0  0  0  0  0  0  0  0  0  0  0  0
    2.1692  -10.7547   11.2613 C   0  0  0  0  0  0  0  0  0  0  0  0
    3.7125   -9.7957   13.3865 N   0  0  0  0  0  0  0  0  0  0  0  0
    5.2909  -10.0433   13.7972 C   0  0  0  0  0  0  0  0  0  0  0  0
    5.7300  -11.1189   13.8662 O   0  0  0  0  0  0  0  0  0  0  0  0
    6.4882   -8.2217   14.0094 C   0  0  0  0  0  0  0  0  0  0  0  0
    8.1494   -7.1774   14.5928 N   0  0  0  0  0  0  0  0  0  0  0  0
    9.6511   -7.5889   15.1474 C   0  0  0  0  0  0  0  0  0  0  0  0
   10.8688   -6.4873   15.2898 C   0  0  0  0  0  0  0  0  0  0  0  0
   10.3778   -5.1342   14.5732 C   0  0  0  0  0  0  0  0  0  0  0  0
    8.8508   -5.5790   14.2727 N   0  0  0  0  0  0  0  0  0  0  0  0
   -3.0749  -14.0122   13.4175 N   0  0  0  0  0  0  0  0  0  0  0  0
   -4.3713  -13.2872   12.7427 C   0  0  0  0  0  0  0  0  0  0  0  0
   -4.5769  -12.0658   12.4219 O   0  0  0  0  0  0  0  0  0  0  0  0
   -5.8728  -14.4327   12.5152 C   0  0  0  0  0  0  0  0  0  0  0  0
   -6.6708  -15.1360   11.3793 C   0  0  0  0  0  0  0  0  0  0  0  0
   -7.1503  -14.8246   10.1277 C   0  0  0  0  0  0  0  0  0  0  0  0
   -7.9144  -15.9430    9.7212 C   0  0  0  0  0  0  0  0  0  0  0  0
   -7.9448  -16.9075   10.6387 N   0  0  0  0  0  0  0  0  0  0  0  0
   -7.2049  -16.3946   11.6350 N   0  0  0  0  0  0  0  0  0  0  0  0
   -2.4374  -13.5717   16.3685 H   0  0  0  0  0  0  0  0  0  0  0  0
   -2.2511  -14.9813   15.6166 H   0  0  0  0  0  0  0  0  0  0  0  0
   -0.9963  -13.9370   16.6089 H   0  0  0  0  0  0  0  0  0  0  0  0
   -0.5066  -14.1642   13.5990 H   0  0  0  0  0  0  0  0  0  0  0  0
    0.4428  -12.9475   12.1344 H   0  0  0  0  0  0  0  0  0  0  0  0
   -0.3079  -11.5118   12.4200 H   0  0  0  0  0  0  0  0  0  0  0  0
    2.1122  -10.9707   13.7916 H   0  0  0  0  0  0  0  0  0  0  0  0
    1.1956  -10.3768   10.9576 H   0  0  0  0  0  0  0  0  0  0  0  0
    2.9432  -10.0801   10.9170 H   0  0  0  0  0  0  0  0  0  0  0  0
    2.4146  -11.6743   10.7246 H   0  0  0  0  0  0  0  0  0  0  0  0
    3.5622   -8.8031   13.3023 H   0  0  0  0  0  0  0  0  0  0  0  0
    5.7901   -7.4108   14.0525 H   0  0  0  0  0  0  0  0  0  0  0  0
    6.9161   -7.9849   13.0092 H   0  0  0  0  0  0  0  0  0  0  0  0
    9.7367   -8.6909   15.3687 H   0  0  0  0  0  0  0  0  0  0  0  0
   11.7696   -6.6105   15.9010 H   0  0  0  0  0  0  0  0  0  0  0  0
   10.7381   -4.1143   14.4925 H   0  0  0  0  0  0  0  0  0  0  0  0
   -3.2263  -15.0062   13.4512 H   0  0  0  0  0  0  0  0  0  0  0  0
   -6.6976  -13.8889   13.0021 H   0  0  0  0  0  0  0  0  0  0  0  0
   -5.5247  -15.3474   12.9771 H   0  0  0  0  0  0  0  0  0  0  0  0
   -6.9851  -13.9049    9.5863 H   0  0  0  0  0  0  0  0  0  0  0  0
   -8.4554  -16.0792    8.7942 H   0  0  0  0  0  0  0  0  0  0  0  0
   -7.0877  -16.9516   12.4742 H   0  0  0  0  0  0  0  0  0  0  0  0
  1  2  1  0
  2  3  1  0
  3  4  1  0
  4  5  1  0
  4  6  1  0
  6  7  1  0
  7  8  2  0
  7  9  1  0
  9 10  1  0
 10 11  1  0
 11 12  2  0
 12 13  1  0
 13 14  2  0
  2 15  1  0
 15 16  1  0
 16 17  2  0
 16 18  1  0
 18 19  1  0
 19 20  2  0
 20 21  1  0
 21 22  2  0
 22 23  1  0
 14 10  1  0
 23 19  1  0
  1 24  1  0
  1 25  1  0
  1 26  1  0
  2 27  1  0
  3 28  1  0
  3 29  1  0
  4 30  1  0
  5 31  1  0
  5 32  1  0
  5 33  1  0
  6 34  1  0
  9 35  1  0
  9 36  1  0
 11 37  1  0
 12 38  1  0
 13 39  1  0
 15 40  1  0
 18 41  1  0
 18 42  1  0
 20 43  1  0
 21 44  1  0
 23 45  1  0
M  END
>  <Energy>  (581) 
1285.513340033415

>  <compound_id>  (581) 
13505

>  <target_id>  (581) 
1

>  <reference_id>  (581) 
81

>  <inspiration_ids>  (581) 
[112, 81]

>  <energy_score>  (581) 
1210.0565549811245

>  <distance_score>  (581) 
9.342671026959492

>  <path>  (581) 
/opt/xchem-fragalysis-2/maxwin/BulkDock/SCRATCH/511016/C13505-P81/C13505-P81.minimised.mol

>  <scratch_subdir>  (581) 
/opt/xchem-fragalysis-2/maxwin/BulkDock/SCRATCH/511016/C13505-P81

>  <fragmenstein_runtime>  (581) 
26.85887908935547

>  <fragmenstein_outcome>  (581) 
too moved

>  <fragmenstein_mode>  (581) 
expansion

>  <fragmenstein_error>  (581) 


$$$$
C13506-P112
     RDKit          3D

 42 43  0  0  0  0  0  0  0  0999 V2000
   -1.4894  -13.6787   16.0839 C   0  0  0  0  0  0  0  0  0  0  0  0
   -1.4833  -13.6655   13.9418 C   0  0  0  0  0  0  0  0  0  0  0  0
   -1.5334  -14.5250   14.7368 N   0  0  0  0  0  0  0  0  0  0  0  0
   -2.5540  -16.3094   14.7552 C   0  0  0  0  0  0  0  0  0  0  0  0
   -2.2039  -17.4549   14.3477 O   0  0  0  0  0  0  0  0  0  0  0  0
   -4.3009  -16.3908   15.1827 C   0  0  0  0  0  0  0  0  0  0  0  0
   -5.6502  -17.0970   14.0345 C   0  0  0  0  0  0  0  0  0  0  0  0
   -6.7944  -16.4885   13.5055 C   0  0  0  0  0  0  0  0  0  0  0  0
   -5.8612  -15.6685   13.0982 N   0  0  0  0  0  0  0  0  0  0  0  0
   -4.6214  -16.0658   13.8159 N   0  0  0  0  0  0  0  0  0  0  0  0
    0.3988  -13.8690   13.8670 C   0  0  0  0  0  0  0  0  0  0  0  0
    0.1749  -13.0460   12.3119 C   0  0  0  0  0  0  0  0  0  0  0  0
    1.9348  -12.5591   14.7872 C   0  0  0  0  0  0  0  0  0  0  0  0
    3.6613  -11.3429   14.9644 N   0  0  0  0  0  0  0  0  0  0  0  0
    5.1273  -11.3562   14.0525 C   0  0  0  0  0  0  0  0  0  0  0  0
    5.4475  -12.1301   13.2424 O   0  0  0  0  0  0  0  0  0  0  0  0
    6.0659  -10.3182   14.0807 C   0  0  0  0  0  0  0  0  0  0  0  0
    7.8300  -10.1554   13.7024 C   0  0  0  0  0  0  0  0  0  0  0  0
    8.6435  -10.8104   12.7815 C   0  0  0  0  0  0  0  0  0  0  0  0
    9.9295  -10.8504   13.3480 C   0  0  0  0  0  0  0  0  0  0  0  0
    9.9788  -10.2443   14.5309 N   0  0  0  0  0  0  0  0  0  0  0  0
    8.7402   -9.7534   14.6818 N   0  0  0  0  0  0  0  0  0  0  0  0
   -2.5113  -14.0264   16.4993 H   0  0  0  0  0  0  0  0  0  0  0  0
   -0.5892  -14.1264   16.5731 H   0  0  0  0  0  0  0  0  0  0  0  0
   -1.6270  -12.9074   16.8881 H   0  0  0  0  0  0  0  0  0  0  0  0
   -1.1153  -12.6329   13.7829 H   0  0  0  0  0  0  0  0  0  0  0  0
   -2.9386  -13.9308   13.7680 H   0  0  0  0  0  0  0  0  0  0  0  0
   -5.6390  -18.1814   13.8147 H   0  0  0  0  0  0  0  0  0  0  0  0
   -7.7054  -16.7383   12.9973 H   0  0  0  0  0  0  0  0  0  0  0  0
   -5.7986  -14.9621   12.3570 H   0  0  0  0  0  0  0  0  0  0  0  0
    0.6343  -14.5352   12.9724 H   0  0  0  0  0  0  0  0  0  0  0  0
    1.0311  -13.2212   11.6778 H   0  0  0  0  0  0  0  0  0  0  0  0
   -0.5777  -13.5877   11.7391 H   0  0  0  0  0  0  0  0  0  0  0  0
   -0.0178  -11.9763   12.3633 H   0  0  0  0  0  0  0  0  0  0  0  0
    1.4350  -11.8664   14.0948 H   0  0  0  0  0  0  0  0  0  0  0  0
    1.6777  -12.6509   15.7886 H   0  0  0  0  0  0  0  0  0  0  0  0
    3.6945  -10.6100   15.6462 H   0  0  0  0  0  0  0  0  0  0  0  0
    5.4009   -9.4468   14.0817 H   0  0  0  0  0  0  0  0  0  0  0  0
    6.1200  -10.4278   13.0108 H   0  0  0  0  0  0  0  0  0  0  0  0
    8.3559  -11.3701   11.9143 H   0  0  0  0  0  0  0  0  0  0  0  0
   10.8152  -11.3389   12.9654 H   0  0  0  0  0  0  0  0  0  0  0  0
    8.5376   -9.3470   15.5803 H   0  0  0  0  0  0  0  0  0  0  0  0
  1  2  1  0
  2  3  1  0
  3  4  1  0
  4  5  2  0
  4  6  1  0
  6  7  1  0
  7  8  2  0
  8  9  1  0
  9 10  1  0
  3 11  1  0
 11 12  1  0
 11 13  1  0
 13 14  1  0
 14 15  1  0
 15 16  2  0
 15 17  1  0
 17 18  1  0
 18 19  2  0
 19 20  1  0
 20 21  2  0
 21 22  1  0
 10  6  2  0
 22 18  1  0
  1 23  1  0
  1 24  1  0
  1 25  1  0
  2 26  1  0
  2 27  1  0
  7 28  1  0
  8 29  1  0
  9 30  1  0
 11 31  1  0
 12 32  1  0
 12 33  1  0
 12 34  1  0
 13 35  1  0
 13 36  1  0
 14 37  1  0
 17 38  1  0
 17 39  1  0
 19 40  1  0
 20 41  1  0
 22 42  1  0
M  END
>  <Energy>  (582) 
1767.9956838866024

>  <compound_id>  (582) 
13506

>  <target_id>  (582) 
1

>  <reference_id>  (582) 
112

>  <inspiration_ids>  (582) 
[112, 81]

>  <energy_score>  (582) 
1633.1180108204026

>  <distance_score>  (582) 
10.759290908328211

>  <path>  (582) 
/opt/xchem-fragalysis-2/maxwin/BulkDock/SCRATCH/511016/C13506-P112/C13506-P112.minimised.mol

>  <scratch_subdir>  (582) 
/opt/xchem-fragalysis-2/maxwin/BulkDock/SCRATCH/511016/C13506-P112

>  <fragmenstein_runtime>  (582) 
35.81184697151184

>  <fragmenstein_outcome>  (582) 
too moved

>  <fragmenstein_mode>  (582) 
expansion

>  <fragmenstein_error>  (582) 


$$$$
C13506-P81
     RDKit          3D

 42 43  0  0  0  0  0  0  0  0999 V2000
   -3.6125  -21.1379   12.3958 C   0  0  0  0  0  0  0  0  0  0  0  0
   -2.9524  -20.5097   13.4884 C   0  0  0  0  0  0  0  0  0  0  0  0
   -3.8006  -19.1014   12.5767 N   0  0  0  0  0  0  0  0  0  0  0  0
   -5.5903  -19.0227   12.7352 C   0  0  0  0  0  0  0  0  0  0  0  0
   -6.0541  -18.3723   13.5904 O   0  0  0  0  0  0  0  0  0  0  0  0
   -6.8457  -19.8919   11.9496 C   0  0  0  0  0  0  0  0  0  0  0  0
   -8.2674  -19.7866   11.4473 C   0  0  0  0  0  0  0  0  0  0  0  0
   -8.9488  -20.9963   11.3555 C   0  0  0  0  0  0  0  0  0  0  0  0
   -8.2325  -21.7527   12.1986 N   0  0  0  0  0  0  0  0  0  0  0  0
   -7.1754  -21.1007   12.7569 N   0  0  0  0  0  0  0  0  0  0  0  0
   -2.3071  -18.0646   13.6017 C   0  0  0  0  0  0  0  0  0  0  0  0
   -3.3214  -16.8976   14.6179 C   0  0  0  0  0  0  0  0  0  0  0  0
   -0.5424  -17.5588   12.1948 C   0  0  0  0  0  0  0  0  0  0  0  0
   -0.0047  -15.7629   11.4575 N   0  0  0  0  0  0  0  0  0  0  0  0
    0.2942  -14.1337   12.2758 C   0  0  0  0  0  0  0  0  0  0  0  0
    0.0849  -14.0069   13.4377 O   0  0  0  0  0  0  0  0  0  0  0  0
    0.8055  -12.3302   11.4857 C   0  0  0  0  0  0  0  0  0  0  0  0
    2.2553  -10.9363   11.8449 C   0  0  0  0  0  0  0  0  0  0  0  0
    3.5428  -10.4414   13.0047 C   0  0  0  0  0  0  0  0  0  0  0  0
    4.0092   -8.7613   12.9521 C   0  0  0  0  0  0  0  0  0  0  0  0
    3.4515   -8.4469   11.5404 N   0  0  0  0  0  0  0  0  0  0  0  0
    2.8959   -9.9890   10.9746 N   0  0  0  0  0  0  0  0  0  0  0  0
   -3.1736  -22.1593   12.2920 H   0  0  0  0  0  0  0  0  0  0  0  0
   -4.6884  -21.0497   12.3720 H   0  0  0  0  0  0  0  0  0  0  0  0
   -3.6407  -20.4906   11.5412 H   0  0  0  0  0  0  0  0  0  0  0  0
   -3.1954  -21.2966   14.1999 H   0  0  0  0  0  0  0  0  0  0  0  0
   -1.8732  -20.5462   13.3907 H   0  0  0  0  0  0  0  0  0  0  0  0
   -8.9661  -19.0163   11.6394 H   0  0  0  0  0  0  0  0  0  0  0  0
   -9.9351  -21.2996   11.0687 H   0  0  0  0  0  0  0  0  0  0  0  0
   -8.4845  -22.6602   12.5473 H   0  0  0  0  0  0  0  0  0  0  0  0
   -1.9499  -18.6529   14.4696 H   0  0  0  0  0  0  0  0  0  0  0  0
   -4.2735  -16.5638   14.2372 H   0  0  0  0  0  0  0  0  0  0  0  0
   -3.6132  -17.4173   15.5321 H   0  0  0  0  0  0  0  0  0  0  0  0
   -2.8428  -15.9602   14.8949 H   0  0  0  0  0  0  0  0  0  0  0  0
   -0.2167  -18.1888   11.3600 H   0  0  0  0  0  0  0  0  0  0  0  0
    0.4593  -17.8156   12.6662 H   0  0  0  0  0  0  0  0  0  0  0  0
    0.1460  -15.6596   10.4653 H   0  0  0  0  0  0  0  0  0  0  0  0
    0.3263  -11.9130   12.3939 H   0  0  0  0  0  0  0  0  0  0  0  0
   -0.0023  -11.8439   10.9467 H   0  0  0  0  0  0  0  0  0  0  0  0
    3.8447  -10.8634   13.9631 H   0  0  0  0  0  0  0  0  0  0  0  0
    4.5385   -8.0569   13.5752 H   0  0  0  0  0  0  0  0  0  0  0  0
    3.0544  -10.1726    9.9997 H   0  0  0  0  0  0  0  0  0  0  0  0
  1  2  1  0
  2  3  1  0
  3  4  1  0
  4  5  2  0
  4  6  1  0
  6  7  1  0
  7  8  2  0
  8  9  1  0
  9 10  1  0
  3 11  1  0
 11 12  1  0
 11 13  1  0
 13 14  1  0
 14 15  1  0
 15 16  2  0
 15 17  1  0
 17 18  1  0
 18 19  2  0
 19 20  1  0
 20 21  2  0
 21 22  1  0
 10  6  2  0
 22 18  1  0
  1 23  1  0
  1 24  1  0
  1 25  1  0
  2 26  1  0
  2 27  1  0
  7 28  1  0
  8 29  1  0
  9 30  1  0
 11 31  1  0
 12 32  1  0
 12 33  1  0
 12 34  1  0
 13 35  1  0
 13 36  1  0
 14 37  1  0
 17 38  1  0
 17 39  1  0
 19 40  1  0
 20 41  1  0
 22 42  1  0
M  END
>  <Energy>  (583) 
1240.8313964400327

>  <compound_id>  (583) 
13506

>  <target_id>  (583) 
1

>  <reference_id>  (583) 
81

>  <inspiration_ids>  (583) 
[112, 81]

>  <energy_score>  (583) 
1105.9537233738367

>  <distance_score>  (583) 
10.154724458492113

>  <path>  (583) 
/opt/xchem-fragalysis-2/maxwin/BulkDock/SCRATCH/511016/C13506-P81/C13506-P81.minimised.mol

>  <scratch_subdir>  (583) 
/opt/xchem-fragalysis-2/maxwin/BulkDock/SCRATCH/511016/C13506-P81

>  <fragmenstein_runtime>  (583) 
21.266406774520874

>  <fragmenstein_outcome>  (583) 
too moved

>  <fragmenstein_mode>  (583) 
expansion

>  <fragmenstein_error>  (583) 


$$$$
C13507-P112
     RDKit          3D

 45 46  0  0  0  0  0  0  0  0999 V2000
   -3.8843  -19.2801   13.0039 C   0  0  0  0  0  0  0  0  0  0  0  0
   -3.8484  -17.5049   14.2191 C   0  0  0  0  0  0  0  0  0  0  0  0
   -5.1943  -17.6518   13.9196 N   0  0  0  0  0  0  0  0  0  0  0  0
   -5.7947  -19.1157   12.5416 C   0  0  0  0  0  0  0  0  0  0  0  0
   -5.1616  -19.8015   11.8629 O   0  0  0  0  0  0  0  0  0  0  0  0
   -7.3143  -19.6127   12.3405 C   0  0  0  0  0  0  0  0  0  0  0  0
   -8.2304  -20.1499   11.3693 C   0  0  0  0  0  0  0  0  0  0  0  0
   -8.9928  -21.1873   11.8985 C   0  0  0  0  0  0  0  0  0  0  0  0
   -8.2556  -21.7293   12.8547 N   0  0  0  0  0  0  0  0  0  0  0  0
   -8.9624  -22.4434   13.8953 C   0  0  0  0  0  0  0  0  0  0  0  0
   -7.1336  -21.0172   12.9313 N   0  0  0  0  0  0  0  0  0  0  0  0
   -3.2584  -16.6650   14.5452 C   0  0  0  0  0  0  0  0  0  0  0  0
   -1.8333  -18.1704   14.6933 C   0  0  0  0  0  0  0  0  0  0  0  0
   -1.8194  -14.8554   14.8406 C   0  0  0  0  0  0  0  0  0  0  0  0
   -0.0726  -14.0826   15.9877 N   0  0  0  0  0  0  0  0  0  0  0  0
    1.5720  -12.8218   15.4149 C   0  0  0  0  0  0  0  0  0  0  0  0
    1.5075  -12.6389   14.2086 O   0  0  0  0  0  0  0  0  0  0  0  0
    3.1768  -11.5647   16.1253 C   0  0  0  0  0  0  0  0  0  0  0  0
    3.2073   -9.9304   14.8619 C   0  0  0  0  0  0  0  0  0  0  0  0
    2.7692   -8.1652   15.4956 C   0  0  0  0  0  0  0  0  0  0  0  0
    3.5139   -6.9800   14.6913 C   0  0  0  0  0  0  0  0  0  0  0  0
    4.2524   -7.7234   13.7159 N   0  0  0  0  0  0  0  0  0  0  0  0
    4.1878   -9.4778   13.8475 N   0  0  0  0  0  0  0  0  0  0  0  0
   -3.7434  -19.1407   11.9265 H   0  0  0  0  0  0  0  0  0  0  0  0
   -3.2779  -20.2229   12.9163 H   0  0  0  0  0  0  0  0  0  0  0  0
   -4.3938  -20.2141   13.3320 H   0  0  0  0  0  0  0  0  0  0  0  0
   -3.0642  -17.9321   13.5693 H   0  0  0  0  0  0  0  0  0  0  0  0
   -3.6750  -17.9504   15.5096 H   0  0  0  0  0  0  0  0  0  0  0  0
   -8.2652  -19.9787   10.3172 H   0  0  0  0  0  0  0  0  0  0  0  0
   -9.7758  -21.8520   11.5537 H   0  0  0  0  0  0  0  0  0  0  0  0
   -9.8802  -21.8995   14.0901 H   0  0  0  0  0  0  0  0  0  0  0  0
   -8.4026  -22.4715   14.8196 H   0  0  0  0  0  0  0  0  0  0  0  0
   -9.2520  -23.4277   13.5159 H   0  0  0  0  0  0  0  0  0  0  0  0
   -2.1967  -16.7442   14.6637 H   0  0  0  0  0  0  0  0  0  0  0  0
   -2.2505  -18.6614   15.4268 H   0  0  0  0  0  0  0  0  0  0  0  0
   -1.3811  -18.8674   14.0150 H   0  0  0  0  0  0  0  0  0  0  0  0
   -0.9030  -18.0618   15.1787 H   0  0  0  0  0  0  0  0  0  0  0  0
   -1.5569  -14.0953   13.9989 H   0  0  0  0  0  0  0  0  0  0  0  0
   -2.8658  -14.5349   15.4944 H   0  0  0  0  0  0  0  0  0  0  0  0
   -0.0664  -14.1587   17.0018 H   0  0  0  0  0  0  0  0  0  0  0  0
    4.1232  -11.7159   15.5978 H   0  0  0  0  0  0  0  0  0  0  0  0
    3.2536  -10.8693   16.9718 H   0  0  0  0  0  0  0  0  0  0  0  0
    2.2972   -7.8800   16.4508 H   0  0  0  0  0  0  0  0  0  0  0  0
    3.5176   -5.9038   14.7979 H   0  0  0  0  0  0  0  0  0  0  0  0
    4.8618  -10.1147   13.4348 H   0  0  0  0  0  0  0  0  0  0  0  0
  1  2  1  0
  2  3  1  0
  3  4  1  0
  4  5  2  0
  4  6  1  0
  6  7  1  0
  7  8  2  0
  8  9  1  0
  9 10  1  0
  9 11  1  0
  3 12  1  0
 12 13  1  0
 12 14  1  0
 14 15  1  0
 15 16  1  0
 16 17  2  0
 16 18  1  0
 18 19  1  0
 19 20  2  0
 20 21  1  0
 21 22  2  0
 22 23  1  0
 11  6  2  0
 23 19  1  0
  1 24  1  0
  1 25  1  0
  1 26  1  0
  2 27  1  0
  2 28  1  0
  7 29  1  0
  8 30  1  0
 10 31  1  0
 10 32  1  0
 10 33  1  0
 12 34  1  0
 13 35  1  0
 13 36  1  0
 13 37  1  0
 14 38  1  0
 14 39  1  0
 15 40  1  0
 18 41  1  0
 18 42  1  0
 20 43  1  0
 21 44  1  0
 23 45  1  0
M  END
>  <Energy>  (584) 
2917.5426561574241

>  <compound_id>  (584) 
13507

>  <target_id>  (584) 
1

>  <reference_id>  (584) 
112

>  <inspiration_ids>  (584) 
[112, 81]

>  <energy_score>  (584) 
2806.9586894266467

>  <distance_score>  (584) 
9.105555208719323

>  <path>  (584) 
/opt/xchem-fragalysis-2/maxwin/BulkDock/SCRATCH/511016/C13507-P112/C13507-P112.minimised.mol

>  <scratch_subdir>  (584) 
/opt/xchem-fragalysis-2/maxwin/BulkDock/SCRATCH/511016/C13507-P112

>  <fragmenstein_runtime>  (584) 
19.35131525993347

>  <fragmenstein_outcome>  (584) 
too moved

>  <fragmenstein_mode>  (584) 
expansion

>  <fragmenstein_error>  (584) 


$$$$
C13507-P81
     RDKit          3D

 45 46  0  0  0  0  0  0  0  0999 V2000
    2.0005  -18.0657   10.2983 C   0  0  0  0  0  0  0  0  0  0  0  0
    1.8052  -18.3184   12.1027 C   0  0  0  0  0  0  0  0  0  0  0  0
    0.7778  -19.0878   11.7960 N   0  0  0  0  0  0  0  0  0  0  0  0
   -0.8852  -19.4537   12.7419 C   0  0  0  0  0  0  0  0  0  0  0  0
   -0.8359  -19.0057   13.7511 O   0  0  0  0  0  0  0  0  0  0  0  0
   -2.8980  -20.2016   12.4559 C   0  0  0  0  0  0  0  0  0  0  0  0
   -4.0014  -19.7638   11.5912 C   0  0  0  0  0  0  0  0  0  0  0  0
   -5.0829  -19.4695   12.3692 C   0  0  0  0  0  0  0  0  0  0  0  0
   -5.1690  -20.7624   12.5359 N   0  0  0  0  0  0  0  0  0  0  0  0
   -6.8097  -21.2319   12.8474 C   0  0  0  0  0  0  0  0  0  0  0  0
   -3.6806  -20.9146   13.2370 N   0  0  0  0  0  0  0  0  0  0  0  0
    2.6419  -18.2203   12.4383 C   0  0  0  0  0  0  0  0  0  0  0  0
    3.0618  -19.4006   13.7026 C   0  0  0  0  0  0  0  0  0  0  0  0
    4.0509  -16.6309   12.9913 C   0  0  0  0  0  0  0  0  0  0  0  0
    5.4509  -15.0582   12.6502 N   0  0  0  0  0  0  0  0  0  0  0  0
    5.7646  -13.2739   13.5489 C   0  0  0  0  0  0  0  0  0  0  0  0
    5.0437  -12.8546   14.4062 O   0  0  0  0  0  0  0  0  0  0  0  0
    6.7148  -12.2883   13.2354 C   0  0  0  0  0  0  0  0  0  0  0  0
    8.3268  -11.2436   14.1289 C   0  0  0  0  0  0  0  0  0  0  0  0
    8.3753   -9.8747   14.3218 C   0  0  0  0  0  0  0  0  0  0  0  0
    9.3294   -9.6940   15.2740 C   0  0  0  0  0  0  0  0  0  0  0  0
    9.9577  -10.7711   15.6924 N   0  0  0  0  0  0  0  0  0  0  0  0
    9.3279  -11.7308   15.0080 N   0  0  0  0  0  0  0  0  0  0  0  0
    1.0469  -17.7495    9.8536 H   0  0  0  0  0  0  0  0  0  0  0  0
    2.7591  -17.2959   10.1111 H   0  0  0  0  0  0  0  0  0  0  0  0
    2.3104  -19.0159    9.8423 H   0  0  0  0  0  0  0  0  0  0  0  0
    1.3617  -17.1505   11.8600 H   0  0  0  0  0  0  0  0  0  0  0  0
    0.9426  -17.9897   12.8244 H   0  0  0  0  0  0  0  0  0  0  0  0
   -3.8464  -19.4283   10.5718 H   0  0  0  0  0  0  0  0  0  0  0  0
   -5.9965  -18.8836   12.3845 H   0  0  0  0  0  0  0  0  0  0  0  0
   -7.3819  -20.5416   12.2055 H   0  0  0  0  0  0  0  0  0  0  0  0
   -7.2082  -21.1268   13.8204 H   0  0  0  0  0  0  0  0  0  0  0  0
   -6.9798  -22.2919   12.7088 H   0  0  0  0  0  0  0  0  0  0  0  0
    3.5009  -18.7460   11.7192 H   0  0  0  0  0  0  0  0  0  0  0  0
    4.0257  -19.1438   14.1431 H   0  0  0  0  0  0  0  0  0  0  0  0
    2.2826  -19.4434   14.4686 H   0  0  0  0  0  0  0  0  0  0  0  0
    3.1276  -20.3851   13.2254 H   0  0  0  0  0  0  0  0  0  0  0  0
    4.2662  -16.9554   11.9389 H   0  0  0  0  0  0  0  0  0  0  0  0
    4.6902  -17.2238   13.6720 H   0  0  0  0  0  0  0  0  0  0  0  0
    6.1124  -15.1790   11.8986 H   0  0  0  0  0  0  0  0  0  0  0  0
    6.9570  -12.9460   12.3726 H   0  0  0  0  0  0  0  0  0  0  0  0
    5.9437  -11.4275   13.2557 H   0  0  0  0  0  0  0  0  0  0  0  0
    7.7586   -9.1179   13.8502 H   0  0  0  0  0  0  0  0  0  0  0  0
    9.5620   -8.7190   15.5749 H   0  0  0  0  0  0  0  0  0  0  0  0
    9.5351  -12.6920   15.2338 H   0  0  0  0  0  0  0  0  0  0  0  0
  1  2  1  0
  2  3  1  0
  3  4  1  0
  4  5  2  0
  4  6  1  0
  6  7  1  0
  7  8  2  0
  8  9  1  0
  9 10  1  0
  9 11  1  0
  3 12  1  0
 12 13  1  0
 12 14  1  0
 14 15  1  0
 15 16  1  0
 16 17  2  0
 16 18  1  0
 18 19  1  0
 19 20  2  0
 20 21  1  0
 21 22  2  0
 22 23  1  0
 11  6  2  0
 23 19  1  0
  1 24  1  0
  1 25  1  0
  1 26  1  0
  2 27  1  0
  2 28  1  0
  7 29  1  0
  8 30  1  0
 10 31  1  0
 10 32  1  0
 10 33  1  0
 12 34  1  0
 13 35  1  0
 13 36  1  0
 13 37  1  0
 14 38  1  0
 14 39  1  0
 15 40  1  0
 18 41  1  0
 18 42  1  0
 20 43  1  0
 21 44  1  0
 23 45  1  0
M  END
>  <Energy>  (585) 
2057.5432865752705

>  <compound_id>  (585) 
13507

>  <target_id>  (585) 
1

>  <reference_id>  (585) 
81

>  <inspiration_ids>  (585) 
[112, 81]

>  <energy_score>  (585) 
1946.9593198444966

>  <distance_score>  (585) 
10.103613234254968

>  <path>  (585) 
/opt/xchem-fragalysis-2/maxwin/BulkDock/SCRATCH/511016/C13507-P81/C13507-P81.minimised.mol

>  <scratch_subdir>  (585) 
/opt/xchem-fragalysis-2/maxwin/BulkDock/SCRATCH/511016/C13507-P81

>  <fragmenstein_runtime>  (585) 
16.360291004180908

>  <fragmenstein_outcome>  (585) 
too moved

>  <fragmenstein_mode>  (585) 
expansion

>  <fragmenstein_error>  (585) 


$$$$
C13508-P112
     RDKit          3D

 33 35  0  0  0  0  0  0  0  0999 V2000
    3.5182  -10.5658   16.0787 C   0  0  0  0  0  0  0  0  0  0  0  0
    3.0108  -10.6777   17.3379 C   0  0  0  0  0  0  0  0  0  0  0  0
    3.1668  -12.2177   17.8650 C   0  0  0  0  0  0  0  0  0  0  0  0
    2.5709  -14.1006   17.9240 C   0  0  0  0  0  0  0  0  0  0  0  0
    0.5437  -14.5724   17.5267 S   0  0  0  0  0  0  0  0  0  0  0  0
   -0.0612  -16.2753   18.2161 C   0  0  0  0  0  0  0  0  0  0  0  0
   -0.7824  -17.3357   17.3146 C   0  0  0  0  0  0  0  0  0  0  0  0
   -0.1505  -18.4153   16.6917 C   0  0  0  0  0  0  0  0  0  0  0  0
   -1.1492  -19.2430   16.1582 C   0  0  0  0  0  0  0  0  0  0  0  0
   -2.3597  -18.7709   16.4079 N   0  0  0  0  0  0  0  0  0  0  0  0
   -2.1524  -17.6066   17.0793 N   0  0  0  0  0  0  0  0  0  0  0  0
   -3.3671  -16.8282   17.4655 C   0  0  0  0  0  0  0  0  0  0  0  0
   -4.3998  -16.6793   16.2919 C   0  0  0  0  0  0  0  0  0  0  0  0
   -5.5205  -16.9648   17.3109 C   0  0  0  0  0  0  0  0  0  0  0  0
   -4.4668  -17.6961   18.1686 C   0  0  0  0  0  0  0  0  0  0  0  0
    4.0553  -12.0370   16.9993 N   0  0  0  0  0  0  0  0  0  0  0  0
    4.1314  -11.5816   15.7699 N   0  0  0  0  0  0  0  0  0  0  0  0
    3.4032  -10.1737   15.0579 H   0  0  0  0  0  0  0  0  0  0  0  0
    2.5251   -9.8590   17.8746 H   0  0  0  0  0  0  0  0  0  0  0  0
    3.1767  -14.7886   17.3233 H   0  0  0  0  0  0  0  0  0  0  0  0
    2.7858  -14.5339   18.9205 H   0  0  0  0  0  0  0  0  0  0  0  0
   -0.7370  -16.0288   19.0423 H   0  0  0  0  0  0  0  0  0  0  0  0
    0.8285  -16.7453   18.6500 H   0  0  0  0  0  0  0  0  0  0  0  0
    0.9171  -18.5875   16.6549 H   0  0  0  0  0  0  0  0  0  0  0  0
   -1.0419  -20.1708   15.6098 H   0  0  0  0  0  0  0  0  0  0  0  0
   -3.1389  -15.8882   17.9800 H   0  0  0  0  0  0  0  0  0  0  0  0
   -4.3483  -17.4279   15.4933 H   0  0  0  0  0  0  0  0  0  0  0  0
   -4.4348  -15.6879   15.8304 H   0  0  0  0  0  0  0  0  0  0  0  0
   -5.9184  -16.0608   17.7862 H   0  0  0  0  0  0  0  0  0  0  0  0
   -6.3532  -17.5710   16.9528 H   0  0  0  0  0  0  0  0  0  0  0  0
   -4.5595  -17.5414   19.2476 H   0  0  0  0  0  0  0  0  0  0  0  0
   -4.4331  -18.7746   17.9773 H   0  0  0  0  0  0  0  0  0  0  0  0
    4.1161  -12.9933   16.8930 H   0  0  0  0  0  0  0  0  0  0  0  0
  1  2  1  0
  2  3  2  0
  3  4  1  0
  4  5  1  0
  5  6  1  0
  6  7  1  0
  7  8  2  0
  8  9  1  0
  9 10  2  0
 10 11  1  0
 11 12  1  0
 12 13  1  0
 13 14  1  0
 14 15  1  0
  3 16  1  0
 16 17  1  0
 17  1  2  0
 11  7  1  0
 15 12  1  0
  1 18  1  0
  2 19  1  0
  4 20  1  0
  4 21  1  0
  6 22  1  0
  6 23  1  0
  8 24  1  0
  9 25  1  0
 12 26  1  0
 13 27  1  0
 13 28  1  0
 14 29  1  0
 14 30  1  0
 15 31  1  0
 15 32  1  0
 16 33  1  0
M  END
>  <Energy>  (586) 
307.18373769449516

>  <compound_id>  (586) 
13508

>  <target_id>  (586) 
1

>  <reference_id>  (586) 
112

>  <inspiration_ids>  (586) 
[112, 81]

>  <energy_score>  (586) 
254.92700684133646

>  <distance_score>  (586) 
13.48888134063569

>  <path>  (586) 
/opt/xchem-fragalysis-2/maxwin/BulkDock/SCRATCH/511016/C13508-P112/C13508-P112.minimised.mol

>  <scratch_subdir>  (586) 
/opt/xchem-fragalysis-2/maxwin/BulkDock/SCRATCH/511016/C13508-P112

>  <fragmenstein_runtime>  (586) 
9.187223434448242

>  <fragmenstein_outcome>  (586) 
too moved

>  <fragmenstein_mode>  (586) 
expansion

>  <fragmenstein_error>  (586) 


$$$$
C13508-P81
     RDKit          3D

 33 35  0  0  0  0  0  0  0  0999 V2000
   -0.7269  -12.1983   11.8833 C   0  0  0  0  0  0  0  0  0  0  0  0
   -2.0294  -12.3888   11.3978 C   0  0  0  0  0  0  0  0  0  0  0  0
   -2.2885  -13.7427   11.5572 C   0  0  0  0  0  0  0  0  0  0  0  0
   -3.3971  -14.6007   10.9940 C   0  0  0  0  0  0  0  0  0  0  0  0
   -4.4292  -15.6205   12.1344 S   0  0  0  0  0  0  0  0  0  0  0  0
   -5.8014  -15.9601   10.9788 C   0  0  0  0  0  0  0  0  0  0  0  0
   -6.8174  -16.9720   11.3633 C   0  0  0  0  0  0  0  0  0  0  0  0
   -6.7372  -18.3426   11.4478 C   0  0  0  0  0  0  0  0  0  0  0  0
   -8.0739  -18.7836   11.2646 C   0  0  0  0  0  0  0  0  0  0  0  0
   -8.9385  -17.7729   11.2630 N   0  0  0  0  0  0  0  0  0  0  0  0
   -8.1605  -16.7149   11.5489 N   0  0  0  0  0  0  0  0  0  0  0  0
   -8.6891  -15.4849   12.1815 C   0  0  0  0  0  0  0  0  0  0  0  0
  -10.2214  -15.3189   12.1429 C   0  0  0  0  0  0  0  0  0  0  0  0
  -10.2974  -15.9803   13.5337 C   0  0  0  0  0  0  0  0  0  0  0  0
   -8.8103  -15.6458   13.7190 C   0  0  0  0  0  0  0  0  0  0  0  0
   -1.1691  -14.2354   12.1836 N   0  0  0  0  0  0  0  0  0  0  0  0
   -0.2127  -13.3147   12.3916 N   0  0  0  0  0  0  0  0  0  0  0  0
   -0.1204  -11.3103   11.8392 H   0  0  0  0  0  0  0  0  0  0  0  0
   -2.6538  -11.6686   10.8896 H   0  0  0  0  0  0  0  0  0  0  0  0
   -4.0782  -13.9393   10.4454 H   0  0  0  0  0  0  0  0  0  0  0  0
   -2.9600  -15.2901   10.2630 H   0  0  0  0  0  0  0  0  0  0  0  0
   -5.3476  -16.3018   10.0399 H   0  0  0  0  0  0  0  0  0  0  0  0
   -6.2811  -15.0031   10.7503 H   0  0  0  0  0  0  0  0  0  0  0  0
   -5.8406  -18.9512   11.4805 H   0  0  0  0  0  0  0  0  0  0  0  0
   -8.4439  -19.7974   11.1681 H   0  0  0  0  0  0  0  0  0  0  0  0
   -8.1537  -14.5856   11.8617 H   0  0  0  0  0  0  0  0  0  0  0  0
  -10.7577  -15.7981   11.3228 H   0  0  0  0  0  0  0  0  0  0  0  0
  -10.5315  -14.2656   12.1590 H   0  0  0  0  0  0  0  0  0  0  0  0
  -10.5180  -17.0477   13.5070 H   0  0  0  0  0  0  0  0  0  0  0  0
  -10.9701  -15.5000   14.2496 H   0  0  0  0  0  0  0  0  0  0  0  0
   -8.6421  -14.7065   14.2602 H   0  0  0  0  0  0  0  0  0  0  0  0
   -8.2042  -16.4213   14.1944 H   0  0  0  0  0  0  0  0  0  0  0  0
   -0.9848  -15.1931   12.4645 H   0  0  0  0  0  0  0  0  0  0  0  0
  1  2  1  0
  2  3  2  0
  3  4  1  0
  4  5  1  0
  5  6  1  0
  6  7  1  0
  7  8  2  0
  8  9  1  0
  9 10  2  0
 10 11  1  0
 11 12  1  0
 12 13  1  0
 13 14  1  0
 14 15  1  0
  3 16  1  0
 16 17  1  0
 17  1  2  0
 11  7  1  0
 15 12  1  0
  1 18  1  0
  2 19  1  0
  4 20  1  0
  4 21  1  0
  6 22  1  0
  6 23  1  0
  8 24  1  0
  9 25  1  0
 12 26  1  0
 13 27  1  0
 13 28  1  0
 14 29  1  0
 14 30  1  0
 15 31  1  0
 15 32  1  0
 16 33  1  0
M  END
>  <Energy>  (587) 
28.67537291624766

>  <compound_id>  (587) 
13508

>  <target_id>  (587) 
1

>  <reference_id>  (587) 
81

>  <inspiration_ids>  (587) 
[112, 81]

>  <energy_score>  (587) 
-23.581357936913605

>  <distance_score>  (587) 
12.710663491599583

>  <path>  (587) 
/opt/xchem-fragalysis-2/maxwin/BulkDock/SCRATCH/511016/C13508-P81/C13508-P81.minimised.mol

>  <scratch_subdir>  (587) 
/opt/xchem-fragalysis-2/maxwin/BulkDock/SCRATCH/511016/C13508-P81

>  <fragmenstein_runtime>  (587) 
9.872528553009033

>  <fragmenstein_outcome>  (587) 
too moved

>  <fragmenstein_mode>  (587) 
expansion

>  <fragmenstein_error>  (587) 


$$$$
C13509-P112
     RDKit          3D

 39 40  0  0  0  0  0  0  0  0999 V2000
   13.4445   -3.6956   16.5564 C   0  0  0  0  0  0  0  0  0  0  0  0
   13.2363   -5.1628   16.4209 N   0  0  0  0  0  0  0  0  0  0  0  0
   14.4311   -4.9891   15.4249 C   0  0  0  0  0  0  0  0  0  0  0  0
   12.1598   -5.9283   15.8082 C   0  0  0  0  0  0  0  0  0  0  0  0
   11.2260   -5.5023   15.1816 O   0  0  0  0  0  0  0  0  0  0  0  0
   12.0153   -7.9047   16.0998 C   0  0  0  0  0  0  0  0  0  0  0  0
   10.7443   -9.3199   15.4969 N   0  0  0  0  0  0  0  0  0  0  0  0
    9.1368   -9.9450   15.5064 C   0  0  0  0  0  0  0  0  0  0  0  0
    8.5707  -10.8346   14.2189 C   0  0  0  0  0  0  0  0  0  0  0  0
    7.0996  -11.9105   13.2515 N   0  0  0  0  0  0  0  0  0  0  0  0
    7.2217  -13.3260   11.8960 C   0  0  0  0  0  0  0  0  0  0  0  0
    8.1784  -13.8141   11.5359 O   0  0  0  0  0  0  0  0  0  0  0  0
    5.8760  -13.8605   10.9885 N   0  0  0  0  0  0  0  0  0  0  0  0
    5.6973  -15.0647    9.7406 N   0  0  0  0  0  0  0  0  0  0  0  0
    4.4606  -15.8674    9.2855 C   0  0  0  0  0  0  0  0  0  0  0  0
    3.3102  -15.7869    9.6278 O   0  0  0  0  0  0  0  0  0  0  0  0
    4.6314  -17.0043    8.3733 C   0  0  0  0  0  0  0  0  0  0  0  0
    3.8092  -17.3663    7.2988 C   0  0  0  0  0  0  0  0  0  0  0  0
    3.6368  -18.7666    7.3609 C   0  0  0  0  0  0  0  0  0  0  0  0
    4.3388  -19.3050    8.3515 N   0  0  0  0  0  0  0  0  0  0  0  0
    4.9153  -18.2423    8.9443 N   0  0  0  0  0  0  0  0  0  0  0  0
   10.3876  -11.0084   14.2368 C   0  0  0  0  0  0  0  0  0  0  0  0
   11.3068  -10.4888   15.0858 N   0  0  0  0  0  0  0  0  0  0  0  0
   13.1176   -3.1055   15.6875 H   0  0  0  0  0  0  0  0  0  0  0  0
   14.4003   -3.3871   17.0027 H   0  0  0  0  0  0  0  0  0  0  0  0
   12.7033   -3.4133   17.3189 H   0  0  0  0  0  0  0  0  0  0  0  0
   14.2350   -4.2759   14.6103 H   0  0  0  0  0  0  0  0  0  0  0  0
   15.3739   -4.7720   15.9513 H   0  0  0  0  0  0  0  0  0  0  0  0
   14.6181   -5.9192   14.8959 H   0  0  0  0  0  0  0  0  0  0  0  0
   12.6785   -8.3052   15.3729 H   0  0  0  0  0  0  0  0  0  0  0  0
   11.0475   -7.4268   16.0907 H   0  0  0  0  0  0  0  0  0  0  0  0
    8.7789   -9.9412   16.5163 H   0  0  0  0  0  0  0  0  0  0  0  0
    6.1361  -11.6939   13.4663 H   0  0  0  0  0  0  0  0  0  0  0  0
    5.1045  -13.3360   11.2851 H   0  0  0  0  0  0  0  0  0  0  0  0
    6.5015  -15.3380    9.1833 H   0  0  0  0  0  0  0  0  0  0  0  0
    3.2219  -16.7077    6.6751 H   0  0  0  0  0  0  0  0  0  0  0  0
    3.0146  -19.3994    6.7408 H   0  0  0  0  0  0  0  0  0  0  0  0
    5.3570  -18.4060    9.8422 H   0  0  0  0  0  0  0  0  0  0  0  0
   10.8848  -11.7386   13.6112 H   0  0  0  0  0  0  0  0  0  0  0  0
  1  2  1  0
  2  3  1  0
  2  4  1  0
  4  5  2  0
  4  6  1  0
  6  7  1  0
  7  8  1  0
  8  9  2  0
  9 10  1  0
 10 11  1  0
 11 12  2  0
 11 13  1  0
 13 14  1  0
 14 15  1  0
 15 16  2  0
 15 17  1  0
 17 18  2  0
 18 19  1  0
 19 20  2  0
 20 21  1  0
  9 22  1  0
 22 23  2  0
 23  7  1  0
 21 17  1  0
  1 24  1  0
  1 25  1  0
  1 26  1  0
  3 27  1  0
  3 28  1  0
  3 29  1  0
  6 30  1  0
  6 31  1  0
  8 32  1  0
 10 33  1  0
 13 34  1  0
 14 35  1  0
 18 36  1  0
 19 37  1  0
 21 38  1  0
 22 39  1  0
M  END
>  <Energy>  (588) 
859.36201019183557

>  <compound_id>  (588) 
13509

>  <target_id>  (588) 
1

>  <reference_id>  (588) 
112

>  <inspiration_ids>  (588) 
[112, 81]

>  <energy_score>  (588) 
806.8499834278118

>  <distance_score>  (588) 
15.264130964831525

>  <path>  (588) 
/opt/xchem-fragalysis-2/maxwin/BulkDock/SCRATCH/511016/C13509-P112/C13509-P112.minimised.mol

>  <scratch_subdir>  (588) 
/opt/xchem-fragalysis-2/maxwin/BulkDock/SCRATCH/511016/C13509-P112

>  <fragmenstein_runtime>  (588) 
22.251060724258423

>  <fragmenstein_outcome>  (588) 
too moved

>  <fragmenstein_mode>  (588) 
expansion

>  <fragmenstein_error>  (588) 


$$$$
C13509-P81
     RDKit          3D

 39 40  0  0  0  0  0  0  0  0999 V2000
    0.8542  -11.0785   11.4646 C   0  0  0  0  0  0  0  0  0  0  0  0
    0.6703  -12.4506   11.1216 N   0  0  0  0  0  0  0  0  0  0  0  0
    2.4024  -12.2606   10.6283 C   0  0  0  0  0  0  0  0  0  0  0  0
    0.4871  -13.6119   11.9552 C   0  0  0  0  0  0  0  0  0  0  0  0
    0.5334  -13.7237   13.1532 O   0  0  0  0  0  0  0  0  0  0  0  0
    0.0604  -14.9313   11.3251 C   0  0  0  0  0  0  0  0  0  0  0  0
    0.6245  -15.9425   10.4030 N   0  0  0  0  0  0  0  0  0  0  0  0
   -0.1960  -16.9813   10.0496 C   0  0  0  0  0  0  0  0  0  0  0  0
    0.5863  -18.0726    9.8076 C   0  0  0  0  0  0  0  0  0  0  0  0
    0.0072  -19.3166    9.7097 N   0  0  0  0  0  0  0  0  0  0  0  0
   -1.4610  -19.7334    9.7379 C   0  0  0  0  0  0  0  0  0  0  0  0
   -2.4246  -19.0676    9.7712 O   0  0  0  0  0  0  0  0  0  0  0  0
   -1.3180  -21.2278    9.7819 N   0  0  0  0  0  0  0  0  0  0  0  0
   -2.2546  -22.2054    9.9625 N   0  0  0  0  0  0  0  0  0  0  0  0
   -2.1338  -23.6413    9.9621 C   0  0  0  0  0  0  0  0  0  0  0  0
   -1.1958  -24.3447    9.7256 O   0  0  0  0  0  0  0  0  0  0  0  0
   -3.4077  -24.3001   10.2828 C   0  0  0  0  0  0  0  0  0  0  0  0
   -3.8982  -25.5218    9.8446 C   0  0  0  0  0  0  0  0  0  0  0  0
   -5.1583  -25.6803   10.4489 C   0  0  0  0  0  0  0  0  0  0  0  0
   -5.4692  -24.6455   11.2264 N   0  0  0  0  0  0  0  0  0  0  0  0
   -4.3491  -23.8791   11.1875 N   0  0  0  0  0  0  0  0  0  0  0  0
    1.8889  -17.5204    9.7743 C   0  0  0  0  0  0  0  0  0  0  0  0
    1.8997  -16.1994   10.0421 N   0  0  0  0  0  0  0  0  0  0  0  0
    0.9897  -10.3212   10.6908 H   0  0  0  0  0  0  0  0  0  0  0  0
   -0.0930  -10.8915   11.9602 H   0  0  0  0  0  0  0  0  0  0  0  0
    1.6160  -10.9877   12.2053 H   0  0  0  0  0  0  0  0  0  0  0  0
    2.5240  -12.5317    9.5834 H   0  0  0  0  0  0  0  0  0  0  0  0
    2.8181  -11.2374   10.6797 H   0  0  0  0  0  0  0  0  0  0  0  0
    3.1498  -12.9913   10.8732 H   0  0  0  0  0  0  0  0  0  0  0  0
   -0.9860  -14.8168   11.0334 H   0  0  0  0  0  0  0  0  0  0  0  0
    0.1589  -15.5758   12.1913 H   0  0  0  0  0  0  0  0  0  0  0  0
   -1.2694  -16.8971   10.1470 H   0  0  0  0  0  0  0  0  0  0  0  0
    0.5818  -20.1315    9.5994 H   0  0  0  0  0  0  0  0  0  0  0  0
   -0.3416  -21.4686    9.8171 H   0  0  0  0  0  0  0  0  0  0  0  0
   -3.2303  -21.9521   10.1308 H   0  0  0  0  0  0  0  0  0  0  0  0
   -3.4007  -26.1949    9.1598 H   0  0  0  0  0  0  0  0  0  0  0  0
   -5.8607  -26.4971   10.3444 H   0  0  0  0  0  0  0  0  0  0  0  0
   -4.3016  -23.0686   11.8114 H   0  0  0  0  0  0  0  0  0  0  0  0
    2.8276  -18.0179    9.5733 H   0  0  0  0  0  0  0  0  0  0  0  0
  1  2  1  0
  2  3  1  0
  2  4  1  0
  4  5  2  0
  4  6  1  0
  6  7  1  0
  7  8  1  0
  8  9  2  0
  9 10  1  0
 10 11  1  0
 11 12  2  0
 11 13  1  0
 13 14  1  0
 14 15  1  0
 15 16  2  0
 15 17  1  0
 17 18  2  0
 18 19  1  0
 19 20  2  0
 20 21  1  0
  9 22  1  0
 22 23  2  0
 23  7  1  0
 21 17  1  0
  1 24  1  0
  1 25  1  0
  1 26  1  0
  3 27  1  0
  3 28  1  0
  3 29  1  0
  6 30  1  0
  6 31  1  0
  8 32  1  0
 10 33  1  0
 13 34  1  0
 14 35  1  0
 18 36  1  0
 19 37  1  0
 21 38  1  0
 22 39  1  0
M  END
>  <Energy>  (589) 
179.6298059781401

>  <compound_id>  (589) 
13509

>  <target_id>  (589) 
1

>  <reference_id>  (589) 
81

>  <inspiration_ids>  (589) 
[112, 81]

>  <energy_score>  (589) 
127.11777921410487

>  <distance_score>  (589) 
13.975648168060578

>  <path>  (589) 
/opt/xchem-fragalysis-2/maxwin/BulkDock/SCRATCH/511016/C13509-P81/C13509-P81.minimised.mol

>  <scratch_subdir>  (589) 
/opt/xchem-fragalysis-2/maxwin/BulkDock/SCRATCH/511016/C13509-P81

>  <fragmenstein_runtime>  (589) 
18.432629585266113

>  <fragmenstein_outcome>  (589) 
too moved

>  <fragmenstein_mode>  (589) 
expansion

>  <fragmenstein_error>  (589) 


$$$$
C13510-P112
     RDKit          3D

 43 44  0  0  0  0  0  0  0  0999 V2000
    8.7746   -2.9719   14.9449 C   0  0  0  0  0  0  0  0  0  0  0  0
    9.5876   -4.4392   14.6438 C   0  0  0  0  0  0  0  0  0  0  0  0
   10.9308   -3.8556   13.6402 C   0  0  0  0  0  0  0  0  0  0  0  0
   11.0224   -4.3759   15.8471 C   0  0  0  0  0  0  0  0  0  0  0  0
    8.4639   -6.2784   14.6176 C   0  0  0  0  0  0  0  0  0  0  0  0
    8.8718   -7.7824   14.9381 C   0  0  0  0  0  0  0  0  0  0  0  0
    8.2366   -8.8709   14.1488 C   0  0  0  0  0  0  0  0  0  0  0  0
    8.4854  -10.3044   13.6768 C   0  0  0  0  0  0  0  0  0  0  0  0
    8.7646  -10.8057   12.2541 N   0  0  0  0  0  0  0  0  0  0  0  0
    8.1855  -12.2470   12.1805 C   0  0  0  0  0  0  0  0  0  0  0  0
    8.0413  -13.0626   10.8271 C   0  0  0  0  0  0  0  0  0  0  0  0
    7.2920  -14.3815   10.8772 N   0  0  0  0  0  0  0  0  0  0  0  0
    6.7090  -15.1872    9.8152 C   0  0  0  0  0  0  0  0  0  0  0  0
    6.7430  -15.0506    8.6266 O   0  0  0  0  0  0  0  0  0  0  0  0
    5.8383  -16.3208   10.2872 C   0  0  0  0  0  0  0  0  0  0  0  0
    5.6170  -17.0157   11.4731 C   0  0  0  0  0  0  0  0  0  0  0  0
    4.4925  -17.8580   11.2587 C   0  0  0  0  0  0  0  0  0  0  0  0
    4.0467  -17.7763   10.0070 N   0  0  0  0  0  0  0  0  0  0  0  0
    4.8824  -16.8804    9.4396 N   0  0  0  0  0  0  0  0  0  0  0  0
    7.2562   -8.1939   13.6236 N   0  0  0  0  0  0  0  0  0  0  0  0
    7.9956   -7.2125   13.2463 N   0  0  0  0  0  0  0  0  0  0  0  0
    9.4914   -2.2173   15.2940 H   0  0  0  0  0  0  0  0  0  0  0  0
    8.2698   -2.4584   14.1194 H   0  0  0  0  0  0  0  0  0  0  0  0
    7.9443   -3.0860   15.5957 H   0  0  0  0  0  0  0  0  0  0  0  0
   10.9350   -3.9291   12.5599 H   0  0  0  0  0  0  0  0  0  0  0  0
   11.9183   -4.1953   13.9502 H   0  0  0  0  0  0  0  0  0  0  0  0
   10.9855   -2.7659   13.7989 H   0  0  0  0  0  0  0  0  0  0  0  0
   10.8173   -4.3721   16.9145 H   0  0  0  0  0  0  0  0  0  0  0  0
   11.5578   -3.4194   15.7515 H   0  0  0  0  0  0  0  0  0  0  0  0
   11.6840   -5.2290   15.6526 H   0  0  0  0  0  0  0  0  0  0  0  0
    9.7601   -8.0814   15.4099 H   0  0  0  0  0  0  0  0  0  0  0  0
    7.4333  -10.5647   13.6329 H   0  0  0  0  0  0  0  0  0  0  0  0
    9.1453  -10.8279   14.3715 H   0  0  0  0  0  0  0  0  0  0  0  0
    8.1971  -10.2296   11.6328 H   0  0  0  0  0  0  0  0  0  0  0  0
    8.7893  -12.8563   12.8636 H   0  0  0  0  0  0  0  0  0  0  0  0
    7.1646  -12.2197   12.5795 H   0  0  0  0  0  0  0  0  0  0  0  0
    9.0345  -13.2875   10.4248 H   0  0  0  0  0  0  0  0  0  0  0  0
    7.5182  -12.4472   10.0871 H   0  0  0  0  0  0  0  0  0  0  0  0
    6.9927  -14.7471   11.7694 H   0  0  0  0  0  0  0  0  0  0  0  0
    6.1572  -16.9124   12.3997 H   0  0  0  0  0  0  0  0  0  0  0  0
    3.9911  -18.5107   11.9631 H   0  0  0  0  0  0  0  0  0  0  0  0
    4.7444  -16.6319    8.4655 H   0  0  0  0  0  0  0  0  0  0  0  0
    7.9466   -6.8648   12.2952 H   0  0  0  0  0  0  0  0  0  0  0  0
  1  2  1  0
  2  3  1  0
  2  4  1  0
  2  5  1  0
  5  6  2  0
  6  7  1  0
  7  8  1  0
  8  9  1  0
  9 10  1  0
 10 11  1  0
 11 12  1  0
 12 13  1  0
 13 14  2  0
 13 15  1  0
 15 16  2  0
 16 17  1  0
 17 18  2  0
 18 19  1  0
  7 20  2  0
 20 21  1  0
 21  5  1  0
 19 15  1  0
  1 22  1  0
  1 23  1  0
  1 24  1  0
  3 25  1  0
  3 26  1  0
  3 27  1  0
  4 28  1  0
  4 29  1  0
  4 30  1  0
  6 31  1  0
  8 32  1  0
  8 33  1  0
  9 34  1  0
 10 35  1  0
 10 36  1  0
 11 37  1  0
 11 38  1  0
 12 39  1  0
 16 40  1  0
 17 41  1  0
 19 42  1  0
 21 43  1  0
M  END
>  <Energy>  (590) 
392.45237157992619

>  <compound_id>  (590) 
13510

>  <target_id>  (590) 
1

>  <reference_id>  (590) 
112

>  <inspiration_ids>  (590) 
[112, 81]

>  <energy_score>  (590) 
343.09315182795194

>  <distance_score>  (590) 
15.708127443433902

>  <path>  (590) 
/opt/xchem-fragalysis-2/maxwin/BulkDock/SCRATCH/511016/C13510-P112/C13510-P112.minimised.mol

>  <scratch_subdir>  (590) 
/opt/xchem-fragalysis-2/maxwin/BulkDock/SCRATCH/511016/C13510-P112

>  <fragmenstein_runtime>  (590) 
16.29577112197876

>  <fragmenstein_outcome>  (590) 
too moved

>  <fragmenstein_mode>  (590) 
expansion

>  <fragmenstein_error>  (590) 


$$$$
C13510-P81
     RDKit          3D

 43 44  0  0  0  0  0  0  0  0999 V2000
   11.3093   -4.9733   16.6211 C   0  0  0  0  0  0  0  0  0  0  0  0
   10.9475   -6.4353   15.4398 C   0  0  0  0  0  0  0  0  0  0  0  0
   10.7588   -4.7923   14.4470 C   0  0  0  0  0  0  0  0  0  0  0  0
   12.3549   -6.8905   15.8870 C   0  0  0  0  0  0  0  0  0  0  0  0
    9.5013   -7.9045   15.1731 C   0  0  0  0  0  0  0  0  0  0  0  0
    9.5016   -9.5882   15.1595 C   0  0  0  0  0  0  0  0  0  0  0  0
    8.4170  -10.3456   14.1047 C   0  0  0  0  0  0  0  0  0  0  0  0
    8.0520  -12.0519   13.2389 C   0  0  0  0  0  0  0  0  0  0  0  0
    6.6323  -13.2887   13.3764 N   0  0  0  0  0  0  0  0  0  0  0  0
    5.6878  -14.7547   12.5300 C   0  0  0  0  0  0  0  0  0  0  0  0
    4.7616  -16.6021   12.6630 C   0  0  0  0  0  0  0  0  0  0  0  0
    3.5722  -17.5199   12.7136 N   0  0  0  0  0  0  0  0  0  0  0  0
    3.1153  -18.5517   11.7781 C   0  0  0  0  0  0  0  0  0  0  0  0
    3.5341  -18.8660   10.7002 O   0  0  0  0  0  0  0  0  0  0  0  0
    1.9269  -19.3511   12.2326 C   0  0  0  0  0  0  0  0  0  0  0  0
    1.1147  -20.1995   11.4748 C   0  0  0  0  0  0  0  0  0  0  0  0
    0.1195  -20.7055   12.3379 C   0  0  0  0  0  0  0  0  0  0  0  0
    0.2560  -20.2253   13.5742 N   0  0  0  0  0  0  0  0  0  0  0  0
    1.3752  -19.4735   13.4848 N   0  0  0  0  0  0  0  0  0  0  0  0
    7.7637   -9.2118   13.7415 N   0  0  0  0  0  0  0  0  0  0  0  0
    8.2885   -8.0124   14.3515 N   0  0  0  0  0  0  0  0  0  0  0  0
   11.0855   -5.0515   17.6682 H   0  0  0  0  0  0  0  0  0  0  0  0
   12.3529   -4.6260   16.5585 H   0  0  0  0  0  0  0  0  0  0  0  0
   10.8034   -4.0303   16.3978 H   0  0  0  0  0  0  0  0  0  0  0  0
   11.5908   -4.0816   14.6593 H   0  0  0  0  0  0  0  0  0  0  0  0
    9.8868   -4.2047   14.7520 H   0  0  0  0  0  0  0  0  0  0  0  0
   10.9595   -4.8734   13.3798 H   0  0  0  0  0  0  0  0  0  0  0  0
   12.8015   -7.7151   15.3863 H   0  0  0  0  0  0  0  0  0  0  0  0
   13.1090   -6.1079   16.0155 H   0  0  0  0  0  0  0  0  0  0  0  0
   12.3370   -7.4270   16.7269 H   0  0  0  0  0  0  0  0  0  0  0  0
   10.3216  -10.1607   15.5841 H   0  0  0  0  0  0  0  0  0  0  0  0
    8.9060  -12.6632   13.5546 H   0  0  0  0  0  0  0  0  0  0  0  0
    8.1115  -11.8003   12.1790 H   0  0  0  0  0  0  0  0  0  0  0  0
    5.9027  -12.6240   13.6828 H   0  0  0  0  0  0  0  0  0  0  0  0
    5.3070  -15.0432   13.5456 H   0  0  0  0  0  0  0  0  0  0  0  0
    5.3911  -14.2226   11.6071 H   0  0  0  0  0  0  0  0  0  0  0  0
    4.9183  -16.9674   11.6241 H   0  0  0  0  0  0  0  0  0  0  0  0
    5.2640  -17.1477   13.4868 H   0  0  0  0  0  0  0  0  0  0  0  0
    3.0354  -17.5870   13.5674 H   0  0  0  0  0  0  0  0  0  0  0  0
    1.2312  -20.3981   10.4182 H   0  0  0  0  0  0  0  0  0  0  0  0
   -0.7009  -21.3749   12.1099 H   0  0  0  0  0  0  0  0  0  0  0  0
    1.6773  -18.9763   14.3158 H   0  0  0  0  0  0  0  0  0  0  0  0
    8.2257   -7.3138   13.6534 H   0  0  0  0  0  0  0  0  0  0  0  0
  1  2  1  0
  2  3  1  0
  2  4  1  0
  2  5  1  0
  5  6  2  0
  6  7  1  0
  7  8  1  0
  8  9  1  0
  9 10  1  0
 10 11  1  0
 11 12  1  0
 12 13  1  0
 13 14  2  0
 13 15  1  0
 15 16  2  0
 16 17  1  0
 17 18  2  0
 18 19  1  0
  7 20  2  0
 20 21  1  0
 21  5  1  0
 19 15  1  0
  1 22  1  0
  1 23  1  0
  1 24  1  0
  3 25  1  0
  3 26  1  0
  3 27  1  0
  4 28  1  0
  4 29  1  0
  4 30  1  0
  6 31  1  0
  8 32  1  0
  8 33  1  0
  9 34  1  0
 10 35  1  0
 10 36  1  0
 11 37  1  0
 11 38  1  0
 12 39  1  0
 16 40  1  0
 17 41  1  0
 19 42  1  0
 21 43  1  0
M  END
>  <Energy>  (591) 
789.46337836404211

>  <compound_id>  (591) 
13510

>  <target_id>  (591) 
1

>  <reference_id>  (591) 
81

>  <inspiration_ids>  (591) 
[112, 81]

>  <energy_score>  (591) 
740.1041586120698

>  <distance_score>  (591) 
12.488071569784553

>  <path>  (591) 
/opt/xchem-fragalysis-2/maxwin/BulkDock/SCRATCH/511016/C13510-P81/C13510-P81.minimised.mol

>  <scratch_subdir>  (591) 
/opt/xchem-fragalysis-2/maxwin/BulkDock/SCRATCH/511016/C13510-P81

>  <fragmenstein_runtime>  (591) 
34.61423897743225

>  <fragmenstein_outcome>  (591) 
too moved

>  <fragmenstein_mode>  (591) 
expansion

>  <fragmenstein_error>  (591) 


$$$$
C13511-P112
     RDKit          3D

 45 46  0  0  0  0  0  0  0  0999 V2000
    1.0281  -16.5675   20.0460 C   0  0  0  0  0  0  0  0  0  0  0  0
    0.6562  -16.9154   18.1928 C   0  0  0  0  0  0  0  0  0  0  0  0
   -0.6493  -18.2864   17.1495 C   0  0  0  0  0  0  0  0  0  0  0  0
   -1.0955  -18.6003   15.0535 C   0  0  0  0  0  0  0  0  0  0  0  0
    0.6508  -18.8708   14.1635 C   0  0  0  0  0  0  0  0  0  0  0  0
   -1.8300  -19.9819   13.7886 N   0  0  0  0  0  0  0  0  0  0  0  0
   -3.6922  -20.2498   12.9336 C   0  0  0  0  0  0  0  0  0  0  0  0
   -4.4722  -19.3720   13.1691 O   0  0  0  0  0  0  0  0  0  0  0  0
   -4.5231  -21.4550   12.0812 C   0  0  0  0  0  0  0  0  0  0  0  0
   -4.6593  -22.9590   11.5636 C   0  0  0  0  0  0  0  0  0  0  0  0
   -5.9774  -23.3672   11.6570 C   0  0  0  0  0  0  0  0  0  0  0  0
   -6.7154  -22.3646   12.1178 N   0  0  0  0  0  0  0  0  0  0  0  0
   -5.9493  -21.2380   11.9627 N   0  0  0  0  0  0  0  0  0  0  0  0
   -6.7291  -20.0483   11.7475 C   0  0  0  0  0  0  0  0  0  0  0  0
    1.9956  -16.1620   18.0964 N   0  0  0  0  0  0  0  0  0  0  0  0
    2.2796  -14.7717   17.8162 C   0  0  0  0  0  0  0  0  0  0  0  0
    1.5541  -13.8869   17.4968 O   0  0  0  0  0  0  0  0  0  0  0  0
    3.8016  -14.2648   18.1004 C   0  0  0  0  0  0  0  0  0  0  0  0
    4.6276  -13.1166   19.4062 C   0  0  0  0  0  0  0  0  0  0  0  0
    5.7156  -12.2385   19.5262 C   0  0  0  0  0  0  0  0  0  0  0  0
    6.1157  -12.0097   20.8541 C   0  0  0  0  0  0  0  0  0  0  0  0
    5.2907  -12.6335   21.6669 N   0  0  0  0  0  0  0  0  0  0  0  0
    4.3529  -13.1158   20.8407 N   0  0  0  0  0  0  0  0  0  0  0  0
    0.2160  -16.1423   20.6307 H   0  0  0  0  0  0  0  0  0  0  0  0
    1.2166  -17.4098   20.7025 H   0  0  0  0  0  0  0  0  0  0  0  0
    1.8303  -15.8410   20.2169 H   0  0  0  0  0  0  0  0  0  0  0  0
    0.0878  -15.9993   18.0974 H   0  0  0  0  0  0  0  0  0  0  0  0
   -0.1541  -19.2301   17.4705 H   0  0  0  0  0  0  0  0  0  0  0  0
   -1.5981  -18.0809   17.6711 H   0  0  0  0  0  0  0  0  0  0  0  0
   -1.7778  -17.8803   14.6746 H   0  0  0  0  0  0  0  0  0  0  0  0
    0.5148  -19.2139   13.1244 H   0  0  0  0  0  0  0  0  0  0  0  0
    1.3860  -19.6133   14.5543 H   0  0  0  0  0  0  0  0  0  0  0  0
    1.3152  -18.0650   14.2885 H   0  0  0  0  0  0  0  0  0  0  0  0
   -1.2247  -20.6913   13.4809 H   0  0  0  0  0  0  0  0  0  0  0  0
   -3.8295  -23.6640   11.5278 H   0  0  0  0  0  0  0  0  0  0  0  0
   -6.4005  -24.3554   11.5403 H   0  0  0  0  0  0  0  0  0  0  0  0
   -6.7692  -19.7848   10.7048 H   0  0  0  0  0  0  0  0  0  0  0  0
   -7.7694  -20.2460   11.9938 H   0  0  0  0  0  0  0  0  0  0  0  0
   -6.3402  -19.1870   12.2578 H   0  0  0  0  0  0  0  0  0  0  0  0
    2.8649  -16.6493   18.2556 H   0  0  0  0  0  0  0  0  0  0  0  0
    3.2856  -14.5781   19.0029 H   0  0  0  0  0  0  0  0  0  0  0  0
    4.4578  -15.0860   17.8510 H   0  0  0  0  0  0  0  0  0  0  0  0
    6.0784  -11.6068   18.7571 H   0  0  0  0  0  0  0  0  0  0  0  0
    6.9132  -11.3890   21.2412 H   0  0  0  0  0  0  0  0  0  0  0  0
    3.5479  -13.5482   21.2779 H   0  0  0  0  0  0  0  0  0  0  0  0
  1  2  1  0
  2  3  1  0
  3  4  1  0
  4  5  1  0
  4  6  1  0
  6  7  1  0
  7  8  2  0
  7  9  1  0
  9 10  2  0
 10 11  1  0
 11 12  2  0
 12 13  1  0
 13 14  1  0
  2 15  1  0
 15 16  1  0
 16 17  2  0
 16 18  1  0
 18 19  1  0
 19 20  2  0
 20 21  1  0
 21 22  2  0
 22 23  1  0
 13  9  1  0
 23 19  1  0
  1 24  1  0
  1 25  1  0
  1 26  1  0
  2 27  1  0
  3 28  1  0
  3 29  1  0
  4 30  1  0
  5 31  1  0
  5 32  1  0
  5 33  1  0
  6 34  1  0
 10 35  1  0
 11 36  1  0
 14 37  1  0
 14 38  1  0
 14 39  1  0
 15 40  1  0
 18 41  1  0
 18 42  1  0
 20 43  1  0
 21 44  1  0
 23 45  1  0
M  END
>  <Energy>  (592) 
862.6054200397142

>  <compound_id>  (592) 
13511

>  <target_id>  (592) 
1

>  <reference_id>  (592) 
112

>  <inspiration_ids>  (592) 
[112, 81]

>  <energy_score>  (592) 
844.8165145306366

>  <distance_score>  (592) 
10.612135784686552

>  <path>  (592) 
/opt/xchem-fragalysis-2/maxwin/BulkDock/SCRATCH/511016/C13511-P112/C13511-P112.minimised.mol

>  <scratch_subdir>  (592) 
/opt/xchem-fragalysis-2/maxwin/BulkDock/SCRATCH/511016/C13511-P112

>  <fragmenstein_runtime>  (592) 
18.69192123413086

>  <fragmenstein_outcome>  (592) 
too moved

>  <fragmenstein_mode>  (592) 
expansion

>  <fragmenstein_error>  (592) 


$$$$
C13511-P81
     RDKit          3D

 45 46  0  0  0  0  0  0  0  0999 V2000
    5.4723  -13.6907   14.0469 C   0  0  0  0  0  0  0  0  0  0  0  0
    4.6741  -15.6769   13.2314 C   0  0  0  0  0  0  0  0  0  0  0  0
    2.8245  -17.2203   12.9263 C   0  0  0  0  0  0  0  0  0  0  0  0
    0.6078  -18.2297   12.8318 C   0  0  0  0  0  0  0  0  0  0  0  0
    0.6078  -18.0909   11.3013 C   0  0  0  0  0  0  0  0  0  0  0  0
   -1.5839  -18.6513   13.5662 N   0  0  0  0  0  0  0  0  0  0  0  0
   -3.5233  -19.1179   12.6043 C   0  0  0  0  0  0  0  0  0  0  0  0
   -3.5733  -19.3476   11.3526 O   0  0  0  0  0  0  0  0  0  0  0  0
   -5.2310  -19.0416   13.2155 C   0  0  0  0  0  0  0  0  0  0  0  0
   -6.1450  -17.8999   13.3142 C   0  0  0  0  0  0  0  0  0  0  0  0
   -7.0151  -18.0446   12.1560 C   0  0  0  0  0  0  0  0  0  0  0  0
   -7.0528  -19.3464   11.7925 N   0  0  0  0  0  0  0  0  0  0  0  0
   -5.9553  -19.9175   12.4533 N   0  0  0  0  0  0  0  0  0  0  0  0
   -4.9294  -20.7634   11.9835 C   0  0  0  0  0  0  0  0  0  0  0  0
    6.2189  -14.2410   13.3790 N   0  0  0  0  0  0  0  0  0  0  0  0
    7.7644  -14.1468   14.6399 C   0  0  0  0  0  0  0  0  0  0  0  0
    7.9666  -15.1064   15.4204 O   0  0  0  0  0  0  0  0  0  0  0  0
    9.0154  -12.6946   15.0864 C   0  0  0  0  0  0  0  0  0  0  0  0
   10.3291  -12.0189   14.8138 C   0  0  0  0  0  0  0  0  0  0  0  0
   11.6113  -12.3813   14.4629 C   0  0  0  0  0  0  0  0  0  0  0  0
   12.4217  -11.5151   15.2180 C   0  0  0  0  0  0  0  0  0  0  0  0
   11.7047  -10.6375   15.9209 N   0  0  0  0  0  0  0  0  0  0  0  0
   10.4706  -10.8132   15.4607 N   0  0  0  0  0  0  0  0  0  0  0  0
    5.3731  -12.5525   13.4403 H   0  0  0  0  0  0  0  0  0  0  0  0
    6.2795  -13.2272   14.6489 H   0  0  0  0  0  0  0  0  0  0  0  0
    4.6465  -12.8787   14.3614 H   0  0  0  0  0  0  0  0  0  0  0  0
    4.9865  -15.4665   12.2591 H   0  0  0  0  0  0  0  0  0  0  0  0
    3.1616  -17.5806   11.9211 H   0  0  0  0  0  0  0  0  0  0  0  0
    3.3511  -18.0526   13.4802 H   0  0  0  0  0  0  0  0  0  0  0  0
    0.9668  -19.2321   13.1067 H   0  0  0  0  0  0  0  0  0  0  0  0
   -0.0643  -17.3063   10.9647 H   0  0  0  0  0  0  0  0  0  0  0  0
    1.5664  -17.7573   10.9077 H   0  0  0  0  0  0  0  0  0  0  0  0
    0.4971  -19.0628   10.8272 H   0  0  0  0  0  0  0  0  0  0  0  0
   -1.7164  -18.5788   14.5975 H   0  0  0  0  0  0  0  0  0  0  0  0
   -6.0001  -16.9781   13.8649 H   0  0  0  0  0  0  0  0  0  0  0  0
   -7.7019  -17.3376   11.7119 H   0  0  0  0  0  0  0  0  0  0  0  0
   -4.0951  -20.8449   12.6505 H   0  0  0  0  0  0  0  0  0  0  0  0
   -4.8356  -21.8200   11.8483 H   0  0  0  0  0  0  0  0  0  0  0  0
   -4.8101  -20.4691   10.9316 H   0  0  0  0  0  0  0  0  0  0  0  0
    6.2630  -13.4011   12.7242 H   0  0  0  0  0  0  0  0  0  0  0  0
    9.5700  -13.3720   15.7971 H   0  0  0  0  0  0  0  0  0  0  0  0
    8.6136  -12.0939   15.9059 H   0  0  0  0  0  0  0  0  0  0  0  0
   11.9667  -13.2734   13.9731 H   0  0  0  0  0  0  0  0  0  0  0  0
   13.4960  -11.5500   15.3366 H   0  0  0  0  0  0  0  0  0  0  0  0
    9.7313  -10.1996   15.7930 H   0  0  0  0  0  0  0  0  0  0  0  0
  1  2  1  0
  2  3  1  0
  3  4  1  0
  4  5  1  0
  4  6  1  0
  6  7  1  0
  7  8  2  0
  7  9  1  0
  9 10  2  0
 10 11  1  0
 11 12  2  0
 12 13  1  0
 13 14  1  0
  2 15  1  0
 15 16  1  0
 16 17  2  0
 16 18  1  0
 18 19  1  0
 19 20  2  0
 20 21  1  0
 21 22  2  0
 22 23  1  0
 13  9  1  0
 23 19  1  0
  1 24  1  0
  1 25  1  0
  1 26  1  0
  2 27  1  0
  3 28  1  0
  3 29  1  0
  4 30  1  0
  5 31  1  0
  5 32  1  0
  5 33  1  0
  6 34  1  0
 10 35  1  0
 11 36  1  0
 14 37  1  0
 14 38  1  0
 14 39  1  0
 15 40  1  0
 18 41  1  0
 18 42  1  0
 20 43  1  0
 21 44  1  0
 23 45  1  0
M  END
>  <Energy>  (593) 
2635.5322011142825

>  <compound_id>  (593) 
13511

>  <target_id>  (593) 
1

>  <reference_id>  (593) 
81

>  <inspiration_ids>  (593) 
[112, 81]

>  <energy_score>  (593) 
2617.7432956052353

>  <distance_score>  (593) 
9.54298870931792

>  <path>  (593) 
/opt/xchem-fragalysis-2/maxwin/BulkDock/SCRATCH/511016/C13511-P81/C13511-P81.minimised.mol

>  <scratch_subdir>  (593) 
/opt/xchem-fragalysis-2/maxwin/BulkDock/SCRATCH/511016/C13511-P81

>  <fragmenstein_runtime>  (593) 
30.765305280685425

>  <fragmenstein_outcome>  (593) 
too moved

>  <fragmenstein_mode>  (593) 
expansion

>  <fragmenstein_error>  (593) 


$$$$
C13512-P112
     RDKit          3D

 39 40  0  0  0  0  0  0  0  0999 V2000
    1.9496   -7.0102   18.8581 C   0  0  0  0  0  0  0  0  0  0  0  0
    2.7929   -6.6710   17.6634 N   0  0  0  0  0  0  0  0  0  0  0  0
    2.1773   -7.9287   17.1389 C   0  0  0  0  0  0  0  0  0  0  0  0
    2.4553   -9.6402   17.5503 C   0  0  0  0  0  0  0  0  0  0  0  0
    2.7578  -11.4744   16.8726 N   0  0  0  0  0  0  0  0  0  0  0  0
    3.7144  -10.7406   16.4816 C   0  0  0  0  0  0  0  0  0  0  0  0
    1.6837  -12.5446   15.8226 C   0  0  0  0  0  0  0  0  0  0  0  0
    1.6621  -12.6446   14.6162 O   0  0  0  0  0  0  0  0  0  0  0  0
    0.3157  -13.4941   16.9859 C   0  0  0  0  0  0  0  0  0  0  0  0
   -0.9410  -14.0647   16.7166 C   0  0  0  0  0  0  0  0  0  0  0  0
   -2.1040  -14.0909   17.5440 C   0  0  0  0  0  0  0  0  0  0  0  0
   -1.9580  -12.8574   17.9365 N   0  0  0  0  0  0  0  0  0  0  0  0
   -0.6870  -12.5208   17.7383 N   0  0  0  0  0  0  0  0  0  0  0  0
    2.5859   -5.3025   17.2867 C   0  0  0  0  0  0  0  0  0  0  0  0
    1.7996   -4.8140   16.5171 O   0  0  0  0  0  0  0  0  0  0  0  0
    3.6394   -4.4002   17.9395 C   0  0  0  0  0  0  0  0  0  0  0  0
    4.2952   -3.5656   16.8760 C   0  0  0  0  0  0  0  0  0  0  0  0
    4.2660   -2.2102   16.6048 C   0  0  0  0  0  0  0  0  0  0  0  0
    5.1020   -2.0399   15.4861 C   0  0  0  0  0  0  0  0  0  0  0  0
    5.6380   -3.1921   15.0916 N   0  0  0  0  0  0  0  0  0  0  0  0
    5.0806   -4.1097   15.8923 N   0  0  0  0  0  0  0  0  0  0  0  0
    2.1132   -6.1823   19.5660 H   0  0  0  0  0  0  0  0  0  0  0  0
    2.2903   -7.8767   19.4305 H   0  0  0  0  0  0  0  0  0  0  0  0
    0.8608   -6.9724   18.6957 H   0  0  0  0  0  0  0  0  0  0  0  0
    1.1060   -7.7651   16.8932 H   0  0  0  0  0  0  0  0  0  0  0  0
    2.6454   -7.8371   16.1675 H   0  0  0  0  0  0  0  0  0  0  0  0
    1.4237   -9.5828   17.7755 H   0  0  0  0  0  0  0  0  0  0  0  0
    2.9120   -9.4739   18.4950 H   0  0  0  0  0  0  0  0  0  0  0  0
    4.0354   -9.9092   17.0492 H   0  0  0  0  0  0  0  0  0  0  0  0
    3.7880  -10.6455   15.3863 H   0  0  0  0  0  0  0  0  0  0  0  0
    4.2428  -11.6577   16.3892 H   0  0  0  0  0  0  0  0  0  0  0  0
   -1.1275  -14.1325   15.6641 H   0  0  0  0  0  0  0  0  0  0  0  0
   -3.0832  -14.5451   17.4709 H   0  0  0  0  0  0  0  0  0  0  0  0
   -2.5836  -12.2081   18.4062 H   0  0  0  0  0  0  0  0  0  0  0  0
    3.1365   -3.7668   18.6779 H   0  0  0  0  0  0  0  0  0  0  0  0
    4.3977   -4.9948   18.4609 H   0  0  0  0  0  0  0  0  0  0  0  0
    3.7189   -1.4500   17.1437 H   0  0  0  0  0  0  0  0  0  0  0  0
    5.3597   -1.1354   14.9536 H   0  0  0  0  0  0  0  0  0  0  0  0
    5.3066   -5.0851   15.7284 H   0  0  0  0  0  0  0  0  0  0  0  0
  1  2  1  0
  2  3  1  0
  3  4  1  0
  4  5  1  0
  5  6  1  0
  5  7  1  0
  7  8  2  0
  7  9  1  0
  9 10  1  0
 10 11  2  0
 11 12  1  0
 12 13  1  0
  2 14  1  0
 14 15  2  0
 14 16  1  0
 16 17  1  0
 17 18  2  0
 18 19  1  0
 19 20  2  0
 20 21  1  0
 13  9  2  0
 21 17  1  0
  1 22  1  0
  1 23  1  0
  1 24  1  0
  3 25  1  0
  3 26  1  0
  4 27  1  0
  4 28  1  0
  6 29  1  0
  6 30  1  0
  6 31  1  0
 10 32  1  0
 11 33  1  0
 12 34  1  0
 16 35  1  0
 16 36  1  0
 18 37  1  0
 19 38  1  0
 21 39  1  0
M  END
>  <Energy>  (594) 
672.04749799707395

>  <compound_id>  (594) 
13512

>  <target_id>  (594) 
1

>  <reference_id>  (594) 
112

>  <inspiration_ids>  (594) 
[112, 81]

>  <energy_score>  (594) 
567.9690277362039

>  <distance_score>  (594) 
13.837766181432599

>  <path>  (594) 
/opt/xchem-fragalysis-2/maxwin/BulkDock/SCRATCH/511016/C13512-P112/C13512-P112.minimised.mol

>  <scratch_subdir>  (594) 
/opt/xchem-fragalysis-2/maxwin/BulkDock/SCRATCH/511016/C13512-P112

>  <fragmenstein_runtime>  (594) 
21.03003430366516

>  <fragmenstein_outcome>  (594) 
too moved

>  <fragmenstein_mode>  (594) 
expansion

>  <fragmenstein_error>  (594) 


$$$$
C13512-P81
     RDKit          3D

 39 40  0  0  0  0  0  0  0  0999 V2000
   -5.7500  -12.8090   18.7080 C   0  0  0  0  0  0  0  0  0  0  0  0
   -4.6016  -13.7242   19.0164 N   0  0  0  0  0  0  0  0  0  0  0  0
   -5.4158  -14.7036   18.0125 C   0  0  0  0  0  0  0  0  0  0  0  0
   -5.0040  -16.0715   16.9963 C   0  0  0  0  0  0  0  0  0  0  0  0
   -4.1956  -16.4256   15.4497 N   0  0  0  0  0  0  0  0  0  0  0  0
   -3.2832  -15.1886   16.0353 C   0  0  0  0  0  0  0  0  0  0  0  0
   -5.2885  -16.4926   13.9738 C   0  0  0  0  0  0  0  0  0  0  0  0
   -5.6104  -15.5794   13.1978 O   0  0  0  0  0  0  0  0  0  0  0  0
   -5.9200  -17.9919   13.3776 C   0  0  0  0  0  0  0  0  0  0  0  0
   -6.8720  -17.8415   12.4177 C   0  0  0  0  0  0  0  0  0  0  0  0
   -7.0454  -19.1612   11.8945 C   0  0  0  0  0  0  0  0  0  0  0  0
   -5.8932  -19.7881   12.1512 N   0  0  0  0  0  0  0  0  0  0  0  0
   -5.1080  -19.0493   12.9135 N   0  0  0  0  0  0  0  0  0  0  0  0
   -3.3495  -13.0236   18.8440 C   0  0  0  0  0  0  0  0  0  0  0  0
   -2.6376  -12.9197   17.8781 O   0  0  0  0  0  0  0  0  0  0  0  0
   -2.9630  -12.2015   20.1205 C   0  0  0  0  0  0  0  0  0  0  0  0
   -2.5489  -10.7466   19.7773 C   0  0  0  0  0  0  0  0  0  0  0  0
   -2.1651   -9.6666   20.5590 C   0  0  0  0  0  0  0  0  0  0  0  0
   -1.9302   -8.5937   19.6615 C   0  0  0  0  0  0  0  0  0  0  0  0
   -2.1733   -8.9360   18.3930 N   0  0  0  0  0  0  0  0  0  0  0  0
   -2.4615  -10.2580   18.4924 N   0  0  0  0  0  0  0  0  0  0  0  0
   -5.5966  -11.9230   19.3412 H   0  0  0  0  0  0  0  0  0  0  0  0
   -5.7427  -12.3805   17.6993 H   0  0  0  0  0  0  0  0  0  0  0  0
   -6.7263  -13.1837   19.0529 H   0  0  0  0  0  0  0  0  0  0  0  0
   -6.1996  -14.2175   17.3984 H   0  0  0  0  0  0  0  0  0  0  0  0
   -6.0149  -15.2484   18.7678 H   0  0  0  0  0  0  0  0  0  0  0  0
   -4.7079  -16.8892   17.6644 H   0  0  0  0  0  0  0  0  0  0  0  0
   -6.0337  -16.0039   16.6249 H   0  0  0  0  0  0  0  0  0  0  0  0
   -2.9900  -15.3046   17.0860 H   0  0  0  0  0  0  0  0  0  0  0  0
   -3.5434  -14.1615   16.1508 H   0  0  0  0  0  0  0  0  0  0  0  0
   -2.4606  -15.1207   15.3471 H   0  0  0  0  0  0  0  0  0  0  0  0
   -7.4563  -16.9269   12.4038 H   0  0  0  0  0  0  0  0  0  0  0  0
   -7.8222  -19.6690   11.3391 H   0  0  0  0  0  0  0  0  0  0  0  0
   -5.5350  -20.6662   11.7920 H   0  0  0  0  0  0  0  0  0  0  0  0
   -3.8198  -12.1498   20.8018 H   0  0  0  0  0  0  0  0  0  0  0  0
   -2.1629  -12.7110   20.6544 H   0  0  0  0  0  0  0  0  0  0  0  0
   -2.0622   -9.6514   21.6341 H   0  0  0  0  0  0  0  0  0  0  0  0
   -1.6079   -7.5868   19.8897 H   0  0  0  0  0  0  0  0  0  0  0  0
   -2.5958  -10.8006   17.6450 H   0  0  0  0  0  0  0  0  0  0  0  0
  1  2  1  0
  2  3  1  0
  3  4  1  0
  4  5  1  0
  5  6  1  0
  5  7  1  0
  7  8  2  0
  7  9  1  0
  9 10  1  0
 10 11  2  0
 11 12  1  0
 12 13  1  0
  2 14  1  0
 14 15  2  0
 14 16  1  0
 16 17  1  0
 17 18  2  0
 18 19  1  0
 19 20  2  0
 20 21  1  0
 13  9  2  0
 21 17  1  0
  1 22  1  0
  1 23  1  0
  1 24  1  0
  3 25  1  0
  3 26  1  0
  4 27  1  0
  4 28  1  0
  6 29  1  0
  6 30  1  0
  6 31  1  0
 10 32  1  0
 11 33  1  0
 12 34  1  0
 16 35  1  0
 16 36  1  0
 18 37  1  0
 19 38  1  0
 21 39  1  0
M  END
>  <Energy>  (595) 
427.29746517911343

>  <compound_id>  (595) 
13512

>  <target_id>  (595) 
1

>  <reference_id>  (595) 
81

>  <inspiration_ids>  (595) 
[112, 81]

>  <energy_score>  (595) 
323.2189949182382

>  <distance_score>  (595) 
13.430948464856039

>  <path>  (595) 
/opt/xchem-fragalysis-2/maxwin/BulkDock/SCRATCH/511016/C13512-P81/C13512-P81.minimised.mol

>  <scratch_subdir>  (595) 
/opt/xchem-fragalysis-2/maxwin/BulkDock/SCRATCH/511016/C13512-P81

>  <fragmenstein_runtime>  (595) 
28.384315490722656

>  <fragmenstein_outcome>  (595) 
too moved

>  <fragmenstein_mode>  (595) 
expansion

>  <fragmenstein_error>  (595) 


$$$$
C13513-P112
     RDKit          3D

 42 43  0  0  0  0  0  0  0  0999 V2000
    1.1779  -13.7685   15.9939 C   0  0  0  0  0  0  0  0  0  0  0  0
    2.4676  -12.9046   14.7884 N   0  0  0  0  0  0  0  0  0  0  0  0
    0.8963  -12.5507   13.7467 C   0  0  0  0  0  0  0  0  0  0  0  0
   -0.5424  -13.8092   13.3305 C   0  0  0  0  0  0  0  0  0  0  0  0
   -1.6701  -14.3541   12.0742 N   0  0  0  0  0  0  0  0  0  0  0  0
   -0.8642  -13.3633   11.3519 C   0  0  0  0  0  0  0  0  0  0  0  0
   -3.6096  -14.3507   12.7303 C   0  0  0  0  0  0  0  0  0  0  0  0
   -4.2544  -13.3339   12.5986 O   0  0  0  0  0  0  0  0  0  0  0  0
   -4.6994  -15.6269   13.3369 C   0  0  0  0  0  0  0  0  0  0  0  0
   -4.7959  -16.6974   14.7208 C   0  0  0  0  0  0  0  0  0  0  0  0
   -6.1176  -17.0856   14.7265 C   0  0  0  0  0  0  0  0  0  0  0  0
   -6.7755  -16.4917   13.6476 N   0  0  0  0  0  0  0  0  0  0  0  0
   -8.1774  -16.0956   13.7018 C   0  0  0  0  0  0  0  0  0  0  0  0
   -6.0035  -15.7548   12.7835 N   0  0  0  0  0  0  0  0  0  0  0  0
    3.5733  -11.3894   15.2535 C   0  0  0  0  0  0  0  0  0  0  0  0
    3.5691  -10.6911   16.2274 O   0  0  0  0  0  0  0  0  0  0  0  0
    4.8534  -11.0663   13.9761 C   0  0  0  0  0  0  0  0  0  0  0  0
    5.3438   -9.9042   13.0116 C   0  0  0  0  0  0  0  0  0  0  0  0
    4.9011   -9.1064   11.9726 C   0  0  0  0  0  0  0  0  0  0  0  0
    5.9647   -8.2352   11.6480 C   0  0  0  0  0  0  0  0  0  0  0  0
    7.0681   -8.5337   12.3256 N   0  0  0  0  0  0  0  0  0  0  0  0
    6.7205   -9.6576   12.9710 N   0  0  0  0  0  0  0  0  0  0  0  0
    0.3178  -13.5870   16.6966 H   0  0  0  0  0  0  0  0  0  0  0  0
    1.7303  -14.7236   16.0223 H   0  0  0  0  0  0  0  0  0  0  0  0
    1.7490  -13.9443   16.9610 H   0  0  0  0  0  0  0  0  0  0  0  0
    0.9165  -11.7732   12.9975 H   0  0  0  0  0  0  0  0  0  0  0  0
    1.2723  -13.2803   13.0130 H   0  0  0  0  0  0  0  0  0  0  0  0
   -1.2214  -13.8490   14.1626 H   0  0  0  0  0  0  0  0  0  0  0  0
   -0.8365  -12.7515   13.2299 H   0  0  0  0  0  0  0  0  0  0  0  0
   -0.9810  -14.0866   10.5875 H   0  0  0  0  0  0  0  0  0  0  0  0
    0.2067  -13.6013   11.4875 H   0  0  0  0  0  0  0  0  0  0  0  0
   -0.7957  -12.2584   11.3366 H   0  0  0  0  0  0  0  0  0  0  0  0
   -3.9912  -16.8043   15.4320 H   0  0  0  0  0  0  0  0  0  0  0  0
   -6.6850  -17.5227   15.5270 H   0  0  0  0  0  0  0  0  0  0  0  0
   -8.5474  -16.2190   14.7232 H   0  0  0  0  0  0  0  0  0  0  0  0
   -8.7549  -16.7012   13.0121 H   0  0  0  0  0  0  0  0  0  0  0  0
   -8.2598  -15.0401   13.4235 H   0  0  0  0  0  0  0  0  0  0  0  0
    5.4422  -11.9563   13.7718 H   0  0  0  0  0  0  0  0  0  0  0  0
    5.4296  -10.5672   14.6573 H   0  0  0  0  0  0  0  0  0  0  0  0
    3.9394   -9.1147   11.4889 H   0  0  0  0  0  0  0  0  0  0  0  0
    5.9810   -7.4259   10.9300 H   0  0  0  0  0  0  0  0  0  0  0  0
    7.4349  -10.1811   13.4746 H   0  0  0  0  0  0  0  0  0  0  0  0
  1  2  1  0
  2  3  1  0
  3  4  1  0
  4  5  1  0
  5  6  1  0
  5  7  1  0
  7  8  2  0
  7  9  1  0
  9 10  1  0
 10 11  2  0
 11 12  1  0
 12 13  1  0
 12 14  1  0
  2 15  1  0
 15 16  2  0
 15 17  1  0
 17 18  1  0
 18 19  2  0
 19 20  1  0
 20 21  2  0
 21 22  1  0
 14  9  2  0
 22 18  1  0
  1 23  1  0
  1 24  1  0
  1 25  1  0
  3 26  1  0
  3 27  1  0
  4 28  1  0
  4 29  1  0
  6 30  1  0
  6 31  1  0
  6 32  1  0
 10 33  1  0
 11 34  1  0
 13 35  1  0
 13 36  1  0
 13 37  1  0
 17 38  1  0
 17 39  1  0
 19 40  1  0
 20 41  1  0
 22 42  1  0
M  END
>  <Energy>  (596) 
942.55286144993795

>  <compound_id>  (596) 
13513

>  <target_id>  (596) 
1

>  <reference_id>  (596) 
112

>  <inspiration_ids>  (596) 
[112, 81]

>  <energy_score>  (596) 
832.4400447138933

>  <distance_score>  (596) 
11.076136395861742

>  <path>  (596) 
/opt/xchem-fragalysis-2/maxwin/BulkDock/SCRATCH/511016/C13513-P112/C13513-P112.minimised.mol

>  <scratch_subdir>  (596) 
/opt/xchem-fragalysis-2/maxwin/BulkDock/SCRATCH/511016/C13513-P112

>  <fragmenstein_runtime>  (596) 
21.45890522003174

>  <fragmenstein_outcome>  (596) 
too moved

>  <fragmenstein_mode>  (596) 
expansion

>  <fragmenstein_error>  (596) 


$$$$
C13513-P81
     RDKit          3D

 42 43  0  0  0  0  0  0  0  0999 V2000
    1.3449  -12.0902   15.7364 C   0  0  0  0  0  0  0  0  0  0  0  0
    2.4747  -12.0493   15.8514 N   0  0  0  0  0  0  0  0  0  0  0  0
    1.3676  -13.8798   16.2378 C   0  0  0  0  0  0  0  0  0  0  0  0
   -0.7119  -13.6360   17.0535 C   0  0  0  0  0  0  0  0  0  0  0  0
   -1.9290  -15.1065   16.5792 N   0  0  0  0  0  0  0  0  0  0  0  0
   -1.8521  -14.3104   15.6419 C   0  0  0  0  0  0  0  0  0  0  0  0
   -3.4542  -15.7373   17.3288 C   0  0  0  0  0  0  0  0  0  0  0  0
   -4.5624  -15.4492   17.1260 O   0  0  0  0  0  0  0  0  0  0  0  0
   -3.4057  -16.9735   18.5525 C   0  0  0  0  0  0  0  0  0  0  0  0
   -4.6265  -17.3463   19.2315 C   0  0  0  0  0  0  0  0  0  0  0  0
   -4.5338  -18.6911   19.4845 C   0  0  0  0  0  0  0  0  0  0  0  0
   -3.3388  -19.0687   18.9563 N   0  0  0  0  0  0  0  0  0  0  0  0
   -2.9139  -20.4343   18.7589 C   0  0  0  0  0  0  0  0  0  0  0  0
   -2.5698  -18.0322   18.5262 N   0  0  0  0  0  0  0  0  0  0  0  0
    3.7833  -11.4437   14.6050 C   0  0  0  0  0  0  0  0  0  0  0  0
    3.3886  -10.9197   13.5661 O   0  0  0  0  0  0  0  0  0  0  0  0
    5.1227  -11.5894   14.5198 C   0  0  0  0  0  0  0  0  0  0  0  0
    5.8770  -10.4736   13.8974 C   0  0  0  0  0  0  0  0  0  0  0  0
    7.2248  -10.1248   13.4740 C   0  0  0  0  0  0  0  0  0  0  0  0
    7.3116   -8.6696   13.5628 C   0  0  0  0  0  0  0  0  0  0  0  0
    6.1824   -8.0430   14.0060 N   0  0  0  0  0  0  0  0  0  0  0  0
    5.1309   -9.3149   14.1546 N   0  0  0  0  0  0  0  0  0  0  0  0
    0.7538  -12.5607   16.5119 H   0  0  0  0  0  0  0  0  0  0  0  0
    1.0363  -11.8202   14.6599 H   0  0  0  0  0  0  0  0  0  0  0  0
    1.6025  -12.7250   14.8654 H   0  0  0  0  0  0  0  0  0  0  0  0
    1.5262  -13.8885   17.3962 H   0  0  0  0  0  0  0  0  0  0  0  0
    1.9147  -14.8269   16.5054 H   0  0  0  0  0  0  0  0  0  0  0  0
   -0.8967  -13.9424   18.0178 H   0  0  0  0  0  0  0  0  0  0  0  0
   -1.2052  -12.6859   17.3441 H   0  0  0  0  0  0  0  0  0  0  0  0
   -1.2770  -14.0067   14.7334 H   0  0  0  0  0  0  0  0  0  0  0  0
   -2.5844  -14.9065   15.0741 H   0  0  0  0  0  0  0  0  0  0  0  0
   -2.5253  -13.6381   16.2163 H   0  0  0  0  0  0  0  0  0  0  0  0
   -5.5158  -16.7420   19.3428 H   0  0  0  0  0  0  0  0  0  0  0  0
   -5.2383  -19.4013   19.8922 H   0  0  0  0  0  0  0  0  0  0  0  0
   -3.7979  -21.0651   18.6291 H   0  0  0  0  0  0  0  0  0  0  0  0
   -2.3610  -20.7494   19.6455 H   0  0  0  0  0  0  0  0  0  0  0  0
   -2.3007  -20.4904   17.8570 H   0  0  0  0  0  0  0  0  0  0  0  0
    5.1351  -11.8769   13.4553 H   0  0  0  0  0  0  0  0  0  0  0  0
    5.4261  -12.6259   14.3873 H   0  0  0  0  0  0  0  0  0  0  0  0
    8.0139  -10.8172   13.2141 H   0  0  0  0  0  0  0  0  0  0  0  0
    8.0399   -7.9811   13.2487 H   0  0  0  0  0  0  0  0  0  0  0  0
    4.1629   -9.1468   13.8116 H   0  0  0  0  0  0  0  0  0  0  0  0
  1  2  1  0
  2  3  1  0
  3  4  1  0
  4  5  1  0
  5  6  1  0
  5  7  1  0
  7  8  2  0
  7  9  1  0
  9 10  1  0
 10 11  2  0
 11 12  1  0
 12 13  1  0
 12 14  1  0
  2 15  1  0
 15 16  2  0
 15 17  1  0
 17 18  1  0
 18 19  2  0
 19 20  1  0
 20 21  2  0
 21 22  1  0
 14  9  2  0
 22 18  1  0
  1 23  1  0
  1 24  1  0
  1 25  1  0
  3 26  1  0
  3 27  1  0
  4 28  1  0
  4 29  1  0
  6 30  1  0
  6 31  1  0
  6 32  1  0
 10 33  1  0
 11 34  1  0
 13 35  1  0
 13 36  1  0
 13 37  1  0
 17 38  1  0
 17 39  1  0
 19 40  1  0
 20 41  1  0
 22 42  1  0
M  END
>  <Energy>  (597) 
1276.5142802511643

>  <compound_id>  (597) 
13513

>  <target_id>  (597) 
1

>  <reference_id>  (597) 
81

>  <inspiration_ids>  (597) 
[112, 81]

>  <energy_score>  (597) 
1166.4014635151311

>  <distance_score>  (597) 
11.381335712104992

>  <path>  (597) 
/opt/xchem-fragalysis-2/maxwin/BulkDock/SCRATCH/511016/C13513-P81/C13513-P81.minimised.mol

>  <scratch_subdir>  (597) 
/opt/xchem-fragalysis-2/maxwin/BulkDock/SCRATCH/511016/C13513-P81

>  <fragmenstein_runtime>  (597) 
27.08231210708618

>  <fragmenstein_outcome>  (597) 
too moved

>  <fragmenstein_mode>  (597) 
expansion

>  <fragmenstein_error>  (597) 


$$$$
C13514-P112
     RDKit          3D

 43 44  0  0  0  0  0  0  0  0999 V2000
    4.0453  -22.2646   11.2741 C   0  0  0  0  0  0  0  0  0  0  0  0
    3.5549  -20.9295   11.3289 O   0  0  0  0  0  0  0  0  0  0  0  0
    3.3960  -20.5228   12.6058 C   0  0  0  0  0  0  0  0  0  0  0  0
    2.1725  -20.4525   13.2137 C   0  0  0  0  0  0  0  0  0  0  0  0
    2.4239  -19.9169   14.4423 N   0  0  0  0  0  0  0  0  0  0  0  0
    3.7532  -19.7520   14.7107 N   0  0  0  0  0  0  0  0  0  0  0  0
    4.3723  -20.0136   13.5326 C   0  0  0  0  0  0  0  0  0  0  0  0
    5.8423  -19.8479   13.2696 C   0  0  0  0  0  0  0  0  0  0  0  0
    6.3302  -20.0141   12.1469 O   0  0  0  0  0  0  0  0  0  0  0  0
    6.7366  -19.6001   14.3320 N   0  0  0  0  0  0  0  0  0  0  0  0
    7.2371  -20.7460   15.0501 C   0  0  0  0  0  0  0  0  0  0  0  0
    7.1546  -18.2338   14.7074 C   0  0  0  0  0  0  0  0  0  0  0  0
    8.7253  -17.9438   14.9387 C   0  0  0  0  0  0  0  0  0  0  0  0
    9.5659  -17.0537   13.9556 N   0  0  0  0  0  0  0  0  0  0  0  0
    9.4852  -18.2812   13.1221 C   0  0  0  0  0  0  0  0  0  0  0  0
   10.6990  -16.4519   14.6568 C   0  0  0  0  0  0  0  0  0  0  0  0
   11.8276  -16.8509   14.8064 O   0  0  0  0  0  0  0  0  0  0  0  0
   10.3118  -15.0712   15.2633 C   0  0  0  0  0  0  0  0  0  0  0  0
   11.1744  -13.8474   14.9589 C   0  0  0  0  0  0  0  0  0  0  0  0
   12.1560  -13.5511   14.0336 C   0  0  0  0  0  0  0  0  0  0  0  0
   12.4860  -12.1931   14.2440 C   0  0  0  0  0  0  0  0  0  0  0  0
   11.7972  -11.6536   15.2501 N   0  0  0  0  0  0  0  0  0  0  0  0
   10.9953  -12.6615   15.6503 N   0  0  0  0  0  0  0  0  0  0  0  0
    3.3276  -22.9616   11.7212 H   0  0  0  0  0  0  0  0  0  0  0  0
    5.0184  -22.3600   11.7670 H   0  0  0  0  0  0  0  0  0  0  0  0
    4.1707  -22.5356   10.2215 H   0  0  0  0  0  0  0  0  0  0  0  0
    1.1675  -20.6661   12.8825 H   0  0  0  0  0  0  0  0  0  0  0  0
    1.7266  -19.6455   15.1377 H   0  0  0  0  0  0  0  0  0  0  0  0
    6.7399  -21.6619   14.7161 H   0  0  0  0  0  0  0  0  0  0  0  0
    8.3096  -20.8462   14.8662 H   0  0  0  0  0  0  0  0  0  0  0  0
    7.0552  -20.6077   16.1168 H   0  0  0  0  0  0  0  0  0  0  0  0
    6.6456  -18.0412   15.6600 H   0  0  0  0  0  0  0  0  0  0  0  0
    6.7265  -17.5516   13.9767 H   0  0  0  0  0  0  0  0  0  0  0  0
    8.7006  -17.2844   15.8140 H   0  0  0  0  0  0  0  0  0  0  0  0
    9.2860  -18.8038   15.3398 H   0  0  0  0  0  0  0  0  0  0  0  0
    9.9958  -19.1675   13.5255 H   0  0  0  0  0  0  0  0  0  0  0  0
    8.5042  -18.4638   12.6763 H   0  0  0  0  0  0  0  0  0  0  0  0
   10.1129  -18.0292   12.2544 H   0  0  0  0  0  0  0  0  0  0  0  0
    9.2875  -14.8352   14.9862 H   0  0  0  0  0  0  0  0  0  0  0  0
   10.3412  -15.2168   16.3468 H   0  0  0  0  0  0  0  0  0  0  0  0
   12.5696  -14.2236   13.2940 H   0  0  0  0  0  0  0  0  0  0  0  0
   13.2052  -11.5895   13.7063 H   0  0  0  0  0  0  0  0  0  0  0  0
   10.3238  -12.4708   16.3861 H   0  0  0  0  0  0  0  0  0  0  0  0
  1  2  1  0
  2  3  1  0
  3  4  2  0
  4  5  1  0
  5  6  1  0
  6  7  2  0
  7  8  1  0
  8  9  2  0
  8 10  1  0
 10 11  1  0
 10 12  1  0
 12 13  1  0
 13 14  1  0
 14 15  1  0
 14 16  1  0
 16 17  2  0
 16 18  1  0
 18 19  1  0
 19 20  2  0
 20 21  1  0
 21 22  2  0
 22 23  1  0
  7  3  1  0
 23 19  1  0
  1 24  1  0
  1 25  1  0
  1 26  1  0
  4 27  1  0
  5 28  1  0
 11 29  1  0
 11 30  1  0
 11 31  1  0
 12 32  1  0
 12 33  1  0
 13 34  1  0
 13 35  1  0
 15 36  1  0
 15 37  1  0
 15 38  1  0
 18 39  1  0
 18 40  1  0
 20 41  1  0
 21 42  1  0
 23 43  1  0
M  END
>  <Energy>  (598) 
179.57602548034325

>  <compound_id>  (598) 
13514

>  <target_id>  (598) 
1

>  <reference_id>  (598) 
112

>  <inspiration_ids>  (598) 
[112, 81]

>  <energy_score>  (598) 
62.43539121506956

>  <distance_score>  (598) 
14.419919081607212

>  <path>  (598) 
/opt/xchem-fragalysis-2/maxwin/BulkDock/SCRATCH/511016/C13514-P112/C13514-P112.minimised.mol

>  <scratch_subdir>  (598) 
/opt/xchem-fragalysis-2/maxwin/BulkDock/SCRATCH/511016/C13514-P112

>  <fragmenstein_runtime>  (598) 
30.27450466156006

>  <fragmenstein_outcome>  (598) 
too moved

>  <fragmenstein_mode>  (598) 
expansion

>  <fragmenstein_error>  (598) 


$$$$
C13514-P81
     RDKit          3D

 43 44  0  0  0  0  0  0  0  0999 V2000
   -5.4427  -14.9230   10.8429 C   0  0  0  0  0  0  0  0  0  0  0  0
   -6.6384  -15.2157   11.5510 O   0  0  0  0  0  0  0  0  0  0  0  0
   -7.5756  -14.2446   11.5112 C   0  0  0  0  0  0  0  0  0  0  0  0
   -8.8992  -14.5977   11.4421 C   0  0  0  0  0  0  0  0  0  0  0  0
   -9.5805  -13.4261   11.4557 N   0  0  0  0  0  0  0  0  0  0  0  0
   -8.8032  -12.3244   11.5469 N   0  0  0  0  0  0  0  0  0  0  0  0
   -7.5381  -12.7964   11.6302 C   0  0  0  0  0  0  0  0  0  0  0  0
   -6.3613  -11.9517   11.9941 C   0  0  0  0  0  0  0  0  0  0  0  0
   -5.3193  -12.5077   12.3251 O   0  0  0  0  0  0  0  0  0  0  0  0
   -6.4065  -10.5487   12.0875 N   0  0  0  0  0  0  0  0  0  0  0  0
   -6.8639  -10.0045   13.3457 C   0  0  0  0  0  0  0  0  0  0  0  0
   -6.0264   -9.5897   11.0148 C   0  0  0  0  0  0  0  0  0  0  0  0
   -4.5092   -9.0035   11.1353 C   0  0  0  0  0  0  0  0  0  0  0  0
   -3.8828   -7.6670   10.5665 N   0  0  0  0  0  0  0  0  0  0  0  0
   -4.6309   -8.0773    9.3661 C   0  0  0  0  0  0  0  0  0  0  0  0
   -2.4377   -7.6338   10.8258 C   0  0  0  0  0  0  0  0  0  0  0  0
   -1.5119   -8.0197   10.1517 O   0  0  0  0  0  0  0  0  0  0  0  0
   -2.1130   -6.8778   12.1530 C   0  0  0  0  0  0  0  0  0  0  0  0
   -0.7281   -6.1900   12.2363 C   0  0  0  0  0  0  0  0  0  0  0  0
   -0.2162   -5.2799   13.1513 C   0  0  0  0  0  0  0  0  0  0  0  0
    1.0952   -4.9881   12.7230 C   0  0  0  0  0  0  0  0  0  0  0  0
    1.4186   -5.6599   11.6202 N   0  0  0  0  0  0  0  0  0  0  0  0
    0.3170   -6.4060   11.3633 N   0  0  0  0  0  0  0  0  0  0  0  0
   -5.1591  -15.8205   10.2837 H   0  0  0  0  0  0  0  0  0  0  0  0
   -4.6402  -14.7168   11.5545 H   0  0  0  0  0  0  0  0  0  0  0  0
   -5.5442  -14.1057   10.1201 H   0  0  0  0  0  0  0  0  0  0  0  0
   -9.3899  -15.5574   11.3828 H   0  0  0  0  0  0  0  0  0  0  0  0
  -10.5848  -13.2929   11.4067 H   0  0  0  0  0  0  0  0  0  0  0  0
   -7.7699   -9.4178   13.1694 H   0  0  0  0  0  0  0  0  0  0  0  0
   -7.0889  -10.8024   14.0600 H   0  0  0  0  0  0  0  0  0  0  0  0
   -6.0868   -9.3606   13.7654 H   0  0  0  0  0  0  0  0  0  0  0  0
   -6.7497   -8.7677   11.0482 H   0  0  0  0  0  0  0  0  0  0  0  0
   -6.1283  -10.1205   10.0613 H   0  0  0  0  0  0  0  0  0  0  0  0
   -3.8032   -9.7998   10.8855 H   0  0  0  0  0  0  0  0  0  0  0  0
   -4.3908   -8.8157   12.2089 H   0  0  0  0  0  0  0  0  0  0  0  0
   -4.3564   -9.0504    8.9302 H   0  0  0  0  0  0  0  0  0  0  0  0
   -5.6999   -7.8454    9.4152 H   0  0  0  0  0  0  0  0  0  0  0  0
   -4.2653   -7.3790    8.5975 H   0  0  0  0  0  0  0  0  0  0  0  0
   -2.8781   -6.1094   12.3135 H   0  0  0  0  0  0  0  0  0  0  0  0
   -2.1787   -7.6076   12.9685 H   0  0  0  0  0  0  0  0  0  0  0  0
   -0.7332   -4.8713   14.0071 H   0  0  0  0  0  0  0  0  0  0  0  0
    1.8178   -4.3134   13.1618 H   0  0  0  0  0  0  0  0  0  0  0  0
    0.3253   -7.0492   10.5733 H   0  0  0  0  0  0  0  0  0  0  0  0
  1  2  1  0
  2  3  1  0
  3  4  2  0
  4  5  1  0
  5  6  1  0
  6  7  2  0
  7  8  1  0
  8  9  2  0
  8 10  1  0
 10 11  1  0
 10 12  1  0
 12 13  1  0
 13 14  1  0
 14 15  1  0
 14 16  1  0
 16 17  2  0
 16 18  1  0
 18 19  1  0
 19 20  2  0
 20 21  1  0
 21 22  2  0
 22 23  1  0
  7  3  1  0
 23 19  1  0
  1 24  1  0
  1 25  1  0
  1 26  1  0
  4 27  1  0
  5 28  1  0
 11 29  1  0
 11 30  1  0
 11 31  1  0
 12 32  1  0
 12 33  1  0
 13 34  1  0
 13 35  1  0
 15 36  1  0
 15 37  1  0
 15 38  1  0
 18 39  1  0
 18 40  1  0
 20 41  1  0
 21 42  1  0
 23 43  1  0
M  END
>  <Energy>  (599) 
181.7730776139698

>  <compound_id>  (599) 
13514

>  <target_id>  (599) 
1

>  <reference_id>  (599) 
81

>  <inspiration_ids>  (599) 
[112, 81]

>  <energy_score>  (599) 
64.63244334869597

>  <distance_score>  (599) 
13.242048695346165

>  <path>  (599) 
/opt/xchem-fragalysis-2/maxwin/BulkDock/SCRATCH/511016/C13514-P81/C13514-P81.minimised.mol

>  <scratch_subdir>  (599) 
/opt/xchem-fragalysis-2/maxwin/BulkDock/SCRATCH/511016/C13514-P81

>  <fragmenstein_runtime>  (599) 
25.731921434402466

>  <fragmenstein_outcome>  (599) 
too moved

>  <fragmenstein_mode>  (599) 
expansion

>  <fragmenstein_error>  (599) 


$$$$
C13515-P112
     RDKit          3D

 42 43  0  0  0  0  0  0  0  0999 V2000
   -1.2464  -13.8605   15.9092 C   0  0  0  0  0  0  0  0  0  0  0  0
   -0.8652  -13.3385   13.9430 C   0  0  0  0  0  0  0  0  0  0  0  0
   -1.3664  -13.9781   13.0761 N   0  0  0  0  0  0  0  0  0  0  0  0
   -0.2718  -12.5840   12.0173 C   0  0  0  0  0  0  0  0  0  0  0  0
    1.4302  -11.3862   11.5861 C   0  0  0  0  0  0  0  0  0  0  0  0
    2.9058  -10.0415   11.9180 N   0  0  0  0  0  0  0  0  0  0  0  0
    4.0439   -9.7084   13.4619 C   0  0  0  0  0  0  0  0  0  0  0  0
    4.0290  -10.4540   14.4338 O   0  0  0  0  0  0  0  0  0  0  0  0
    5.2536   -7.9837   13.8505 C   0  0  0  0  0  0  0  0  0  0  0  0
    6.1531   -6.7497   15.1747 N   0  0  0  0  0  0  0  0  0  0  0  0
    7.1861   -5.9434   15.5636 C   0  0  0  0  0  0  0  0  0  0  0  0
    6.6865   -4.7565   16.2578 C   0  0  0  0  0  0  0  0  0  0  0  0
    6.3595   -2.8831   15.5735 Cl  0  0  0  0  0  0  0  0  0  0  0  0
    5.7770   -5.2583   17.1182 C   0  0  0  0  0  0  0  0  0  0  0  0
    5.3845   -6.4009   16.6080 N   0  0  0  0  0  0  0  0  0  0  0  0
   -3.4119  -14.1330   13.4120 C   0  0  0  0  0  0  0  0  0  0  0  0
   -4.3665  -13.3977   13.0268 O   0  0  0  0  0  0  0  0  0  0  0  0
   -4.0252  -15.3922   14.5297 C   0  0  0  0  0  0  0  0  0  0  0  0
   -5.5332  -15.6642   14.4570 C   0  0  0  0  0  0  0  0  0  0  0  0
   -6.5116  -15.4785   13.5004 C   0  0  0  0  0  0  0  0  0  0  0  0
   -7.6962  -15.9778   14.0709 C   0  0  0  0  0  0  0  0  0  0  0  0
   -7.4987  -16.4609   15.2979 N   0  0  0  0  0  0  0  0  0  0  0  0
   -6.1894  -16.2678   15.5049 N   0  0  0  0  0  0  0  0  0  0  0  0
   -0.3693  -14.2946   16.3530 H   0  0  0  0  0  0  0  0  0  0  0  0
   -2.3027  -13.9472   16.3017 H   0  0  0  0  0  0  0  0  0  0  0  0
   -1.1640  -13.1864   16.8120 H   0  0  0  0  0  0  0  0  0  0  0  0
    0.2027  -13.5830   13.5880 H   0  0  0  0  0  0  0  0  0  0  0  0
   -0.9193  -12.2419   13.7626 H   0  0  0  0  0  0  0  0  0  0  0  0
   -0.8715  -11.6718   12.0004 H   0  0  0  0  0  0  0  0  0  0  0  0
   -0.3100  -13.1953   11.1557 H   0  0  0  0  0  0  0  0  0  0  0  0
    0.8835  -10.6475   11.0259 H   0  0  0  0  0  0  0  0  0  0  0  0
    1.9972  -11.9412   10.8169 H   0  0  0  0  0  0  0  0  0  0  0  0
    3.1121   -9.4097   11.2409 H   0  0  0  0  0  0  0  0  0  0  0  0
    5.8286   -7.3609   13.1588 H   0  0  0  0  0  0  0  0  0  0  0  0
    4.3254   -7.3889   13.9232 H   0  0  0  0  0  0  0  0  0  0  0  0
    8.0376   -6.1246   14.9374 H   0  0  0  0  0  0  0  0  0  0  0  0
    5.2000   -4.8111   17.9133 H   0  0  0  0  0  0  0  0  0  0  0  0
   -3.9140  -14.9238   15.5129 H   0  0  0  0  0  0  0  0  0  0  0  0
   -3.4959  -16.3348   14.6533 H   0  0  0  0  0  0  0  0  0  0  0  0
   -6.3907  -15.0205   12.5277 H   0  0  0  0  0  0  0  0  0  0  0  0
   -8.6907  -16.0009   13.6443 H   0  0  0  0  0  0  0  0  0  0  0  0
   -5.8070  -16.5497   16.4005 H   0  0  0  0  0  0  0  0  0  0  0  0
  1  2  1  0
  2  3  1  0
  3  4  1  0
  4  5  1  0
  5  6  1  0
  6  7  1  0
  7  8  2  0
  7  9  1  0
  9 10  1  0
 10 11  1  0
 11 12  2  0
 12 13  1  0
 12 14  1  0
 14 15  2  0
  3 16  1  0
 16 17  2  0
 16 18  1  0
 18 19  1  0
 19 20  2  0
 20 21  1  0
 21 22  2  0
 22 23  1  0
 15 10  1  0
 23 19  1  0
  1 24  1  0
  1 25  1  0
  1 26  1  0
  2 27  1  0
  2 28  1  0
  4 29  1  0
  4 30  1  0
  5 31  1  0
  5 32  1  0
  6 33  1  0
  9 34  1  0
  9 35  1  0
 11 36  1  0
 14 37  1  0
 18 38  1  0
 18 39  1  0
 20 40  1  0
 21 41  1  0
 23 42  1  0
M  END
>  <Energy>  (600) 
1299.1558448531134

>  <compound_id>  (600) 
13515

>  <target_id>  (600) 
1

>  <reference_id>  (600) 
112

>  <inspiration_ids>  (600) 
[112, 81]

>  <energy_score>  (600) 
1214.6554130158675

>  <distance_score>  (600) 
9.831392729033054

>  <path>  (600) 
/opt/xchem-fragalysis-2/maxwin/BulkDock/SCRATCH/511016/C13515-P112/C13515-P112.minimised.mol

>  <scratch_subdir>  (600) 
/opt/xchem-fragalysis-2/maxwin/BulkDock/SCRATCH/511016/C13515-P112

>  <fragmenstein_runtime>  (600) 
24.84759831428528

>  <fragmenstein_outcome>  (600) 
too moved

>  <fragmenstein_mode>  (600) 
expansion

>  <fragmenstein_error>  (600) 


$$$$
C13515-P81
     RDKit          3D

 42 43  0  0  0  0  0  0  0  0999 V2000
    0.9863  -19.2031   12.9212 C   0  0  0  0  0  0  0  0  0  0  0  0
    0.7096  -17.9313   12.2313 C   0  0  0  0  0  0  0  0  0  0  0  0
   -0.7087  -17.2608   12.1083 N   0  0  0  0  0  0  0  0  0  0  0  0
    0.4860  -15.5282   12.3738 C   0  0  0  0  0  0  0  0  0  0  0  0
    0.6841  -13.3662   12.8300 C   0  0  0  0  0  0  0  0  0  0  0  0
    1.6218  -11.4215   12.7991 N   0  0  0  0  0  0  0  0  0  0  0  0
    3.2405  -10.7115   13.7517 C   0  0  0  0  0  0  0  0  0  0  0  0
    3.8971  -11.3684   14.6263 O   0  0  0  0  0  0  0  0  0  0  0  0
    4.1475   -9.0582   13.4126 C   0  0  0  0  0  0  0  0  0  0  0  0
    4.9242   -7.4920   13.9324 N   0  0  0  0  0  0  0  0  0  0  0  0
    6.3589   -7.2078   15.0294 C   0  0  0  0  0  0  0  0  0  0  0  0
    5.9970   -6.4997   16.2670 C   0  0  0  0  0  0  0  0  0  0  0  0
    6.3845   -6.0923   17.8844 Cl  0  0  0  0  0  0  0  0  0  0  0  0
    4.5943   -6.1931   16.1487 C   0  0  0  0  0  0  0  0  0  0  0  0
    3.8491   -6.5545   15.0057 N   0  0  0  0  0  0  0  0  0  0  0  0
   -2.2446  -17.9768   13.4503 C   0  0  0  0  0  0  0  0  0  0  0  0
   -2.5784  -17.5818   14.5927 O   0  0  0  0  0  0  0  0  0  0  0  0
   -3.6291  -19.5022   12.6366 C   0  0  0  0  0  0  0  0  0  0  0  0
   -4.7366  -19.5092   11.3260 C   0  0  0  0  0  0  0  0  0  0  0  0
   -6.1060  -19.2220   11.6234 C   0  0  0  0  0  0  0  0  0  0  0  0
   -6.4951  -18.1417   10.8140 C   0  0  0  0  0  0  0  0  0  0  0  0
   -5.6509  -18.0781    9.7574 N   0  0  0  0  0  0  0  0  0  0  0  0
   -4.5993  -18.9628   10.0488 N   0  0  0  0  0  0  0  0  0  0  0  0
    0.0478  -19.7047   12.8577 H   0  0  0  0  0  0  0  0  0  0  0  0
    1.8004  -19.7199   12.4037 H   0  0  0  0  0  0  0  0  0  0  0  0
    1.2847  -19.1628   13.9641 H   0  0  0  0  0  0  0  0  0  0  0  0
    1.5961  -17.3230   12.2105 H   0  0  0  0  0  0  0  0  0  0  0  0
    0.7682  -18.2373   11.1712 H   0  0  0  0  0  0  0  0  0  0  0  0
    1.0895  -15.6645   11.4697 H   0  0  0  0  0  0  0  0  0  0  0  0
   -0.3066  -15.0919   11.7246 H   0  0  0  0  0  0  0  0  0  0  0  0
    0.2468  -13.1174   11.8431 H   0  0  0  0  0  0  0  0  0  0  0  0
   -0.1610  -13.1674   13.4601 H   0  0  0  0  0  0  0  0  0  0  0  0
    1.3217  -10.7484   12.0870 H   0  0  0  0  0  0  0  0  0  0  0  0
    3.5781   -8.5600   14.1669 H   0  0  0  0  0  0  0  0  0  0  0  0
    5.0186   -9.5389   13.8787 H   0  0  0  0  0  0  0  0  0  0  0  0
    7.0805   -7.8069   14.5583 H   0  0  0  0  0  0  0  0  0  0  0  0
    4.3761   -5.3459   16.7841 H   0  0  0  0  0  0  0  0  0  0  0  0
   -4.5778  -19.0395   13.0174 H   0  0  0  0  0  0  0  0  0  0  0  0
   -3.5937  -20.5133   12.9961 H   0  0  0  0  0  0  0  0  0  0  0  0
   -6.6063  -19.6615   12.4511 H   0  0  0  0  0  0  0  0  0  0  0  0
   -7.3843  -17.5268   10.8418 H   0  0  0  0  0  0  0  0  0  0  0  0
   -3.7755  -18.9147    9.4554 H   0  0  0  0  0  0  0  0  0  0  0  0
  1  2  1  0
  2  3  1  0
  3  4  1  0
  4  5  1  0
  5  6  1  0
  6  7  1  0
  7  8  2  0
  7  9  1  0
  9 10  1  0
 10 11  1  0
 11 12  2  0
 12 13  1  0
 12 14  1  0
 14 15  2  0
  3 16  1  0
 16 17  2  0
 16 18  1  0
 18 19  1  0
 19 20  2  0
 20 21  1  0
 21 22  2  0
 22 23  1  0
 15 10  1  0
 23 19  1  0
  1 24  1  0
  1 25  1  0
  1 26  1  0
  2 27  1  0
  2 28  1  0
  4 29  1  0
  4 30  1  0
  5 31  1  0
  5 32  1  0
  6 33  1  0
  9 34  1  0
  9 35  1  0
 11 36  1  0
 14 37  1  0
 18 38  1  0
 18 39  1  0
 20 40  1  0
 21 41  1  0
 23 42  1  0
M  END
>  <Energy>  (601) 
1508.5888942603101

>  <compound_id>  (601) 
13515

>  <target_id>  (601) 
1

>  <reference_id>  (601) 
81

>  <inspiration_ids>  (601) 
[112, 81]

>  <energy_score>  (601) 
1424.0884624231003

>  <distance_score>  (601) 
9.372442805848097

>  <path>  (601) 
/opt/xchem-fragalysis-2/maxwin/BulkDock/SCRATCH/511016/C13515-P81/C13515-P81.minimised.mol

>  <scratch_subdir>  (601) 
/opt/xchem-fragalysis-2/maxwin/BulkDock/SCRATCH/511016/C13515-P81

>  <fragmenstein_runtime>  (601) 
19.28615975379944

>  <fragmenstein_outcome>  (601) 
too moved

>  <fragmenstein_mode>  (601) 
expansion

>  <fragmenstein_error>  (601) 


$$$$
C13516-P112
     RDKit          3D

 39 40  0  0  0  0  0  0  0  0999 V2000
    0.6390  -12.0474   13.1521 C   0  0  0  0  0  0  0  0  0  0  0  0
    1.0439  -11.1794   11.9035 C   0  0  0  0  0  0  0  0  0  0  0  0
    2.8242  -10.2642   11.9885 C   0  0  0  0  0  0  0  0  0  0  0  0
    4.0148   -8.9898   12.9858 N   0  0  0  0  0  0  0  0  0  0  0  0
    5.3557   -9.2381   13.9642 C   0  0  0  0  0  0  0  0  0  0  0  0
    5.6906  -10.3251   14.2605 O   0  0  0  0  0  0  0  0  0  0  0  0
    6.5589   -7.5141   14.4737 C   0  0  0  0  0  0  0  0  0  0  0  0
    8.2520   -6.3695   14.6914 N   0  0  0  0  0  0  0  0  0  0  0  0
    8.8712   -4.5454   14.6228 C   0  0  0  0  0  0  0  0  0  0  0  0
   10.4203   -4.2011   15.1394 C   0  0  0  0  0  0  0  0  0  0  0  0
   11.2457   -2.7296   15.2501 Cl  0  0  0  0  0  0  0  0  0  0  0  0
   10.9555   -5.6181   15.3022 C   0  0  0  0  0  0  0  0  0  0  0  0
    9.8012   -6.8870   15.1049 N   0  0  0  0  0  0  0  0  0  0  0  0
    0.2036  -12.4619   11.3478 N   0  0  0  0  0  0  0  0  0  0  0  0
    0.4223  -13.9585   11.5432 C   0  0  0  0  0  0  0  0  0  0  0  0
    1.3013  -14.5199   12.0774 O   0  0  0  0  0  0  0  0  0  0  0  0
   -0.6276  -14.9984   11.0306 C   0  0  0  0  0  0  0  0  0  0  0  0
   -0.0774  -16.5213   10.4970 C   0  0  0  0  0  0  0  0  0  0  0  0
    1.0756  -17.2668   10.6605 C   0  0  0  0  0  0  0  0  0  0  0  0
    0.7806  -18.5915   10.2684 C   0  0  0  0  0  0  0  0  0  0  0  0
   -0.4131  -18.6771    9.6949 N   0  0  0  0  0  0  0  0  0  0  0  0
   -0.7987  -17.3949    9.6541 N   0  0  0  0  0  0  0  0  0  0  0  0
   -0.4412  -11.9171   13.3073 H   0  0  0  0  0  0  0  0  0  0  0  0
    0.7530  -13.0964   13.2595 H   0  0  0  0  0  0  0  0  0  0  0  0
    1.2998  -11.8558   13.9675 H   0  0  0  0  0  0  0  0  0  0  0  0
    0.4187  -10.3543   11.6901 H   0  0  0  0  0  0  0  0  0  0  0  0
    3.3515  -10.5498   11.0661 H   0  0  0  0  0  0  0  0  0  0  0  0
    2.8477  -10.5769   13.0233 H   0  0  0  0  0  0  0  0  0  0  0  0
    3.8493   -7.9967   12.9230 H   0  0  0  0  0  0  0  0  0  0  0  0
    6.1496   -6.6754   15.0261 H   0  0  0  0  0  0  0  0  0  0  0  0
    6.7289   -7.4263   13.3879 H   0  0  0  0  0  0  0  0  0  0  0  0
    9.7226   -4.5460   13.9445 H   0  0  0  0  0  0  0  0  0  0  0  0
   11.9231   -5.8762   15.7326 H   0  0  0  0  0  0  0  0  0  0  0  0
   -0.6852  -12.3117   10.9245 H   0  0  0  0  0  0  0  0  0  0  0  0
   -0.8358  -15.1493   12.0347 H   0  0  0  0  0  0  0  0  0  0  0  0
   -1.6251  -14.7930   10.6712 H   0  0  0  0  0  0  0  0  0  0  0  0
    2.0069  -16.9514   11.0888 H   0  0  0  0  0  0  0  0  0  0  0  0
    1.4024  -19.4728   10.3580 H   0  0  0  0  0  0  0  0  0  0  0  0
   -1.6664  -17.2085    9.1613 H   0  0  0  0  0  0  0  0  0  0  0  0
  1  2  1  0
  2  3  1  0
  3  4  1  0
  4  5  1  0
  5  6  2  0
  5  7  1  0
  7  8  1  0
  8  9  1  0
  9 10  2  0
 10 11  1  0
 10 12  1  0
 12 13  2  0
  2 14  1  0
 14 15  1  0
 15 16  2  0
 15 17  1  0
 17 18  1  0
 18 19  2  0
 19 20  1  0
 20 21  2  0
 21 22  1  0
 13  8  1  0
 22 18  1  0
  1 23  1  0
  1 24  1  0
  1 25  1  0
  2 26  1  0
  3 27  1  0
  3 28  1  0
  4 29  1  0
  7 30  1  0
  7 31  1  0
  9 32  1  0
 12 33  1  0
 14 34  1  0
 17 35  1  0
 17 36  1  0
 19 37  1  0
 20 38  1  0
 22 39  1  0
M  END
>  <Energy>  (602) 
1060.4688645957399

>  <compound_id>  (602) 
13516

>  <target_id>  (602) 
1

>  <reference_id>  (602) 
112

>  <inspiration_ids>  (602) 
[112, 81]

>  <energy_score>  (602) 
981.5249049861318

>  <distance_score>  (602) 
11.473478333733304

>  <path>  (602) 
/opt/xchem-fragalysis-2/maxwin/BulkDock/SCRATCH/511016/C13516-P112/C13516-P112.minimised.mol

>  <scratch_subdir>  (602) 
/opt/xchem-fragalysis-2/maxwin/BulkDock/SCRATCH/511016/C13516-P112

>  <fragmenstein_runtime>  (602) 
15.389259815216064

>  <fragmenstein_outcome>  (602) 
too moved

>  <fragmenstein_mode>  (602) 
expansion

>  <fragmenstein_error>  (602) 


$$$$
C13516-P81
     RDKit          3D

 39 40  0  0  0  0  0  0  0  0999 V2000
    0.1949  -12.9440   12.9983 C   0  0  0  0  0  0  0  0  0  0  0  0
    0.4217  -12.8959   11.5081 C   0  0  0  0  0  0  0  0  0  0  0  0
    0.4095  -11.0055   11.1935 C   0  0  0  0  0  0  0  0  0  0  0  0
    1.5817   -9.5967   10.9685 N   0  0  0  0  0  0  0  0  0  0  0  0
    1.4034   -7.8182   11.3758 C   0  0  0  0  0  0  0  0  0  0  0  0
    0.4044   -7.2350   11.7923 O   0  0  0  0  0  0  0  0  0  0  0  0
    2.7268   -6.7511   11.3737 C   0  0  0  0  0  0  0  0  0  0  0  0
    3.1646   -4.9674   11.3363 N   0  0  0  0  0  0  0  0  0  0  0  0
    3.0882   -4.0202   10.3062 C   0  0  0  0  0  0  0  0  0  0  0  0
    3.9645   -3.0004   10.4317 C   0  0  0  0  0  0  0  0  0  0  0  0
    4.2932   -1.7060    9.4174 Cl  0  0  0  0  0  0  0  0  0  0  0  0
    4.5567   -3.3655   11.5956 C   0  0  0  0  0  0  0  0  0  0  0  0
    4.0539   -4.4752   12.1682 N   0  0  0  0  0  0  0  0  0  0  0  0
   -0.0391  -14.5717   11.2659 N   0  0  0  0  0  0  0  0  0  0  0  0
    0.6803  -15.7383   10.4707 C   0  0  0  0  0  0  0  0  0  0  0  0
    1.6816  -15.7166    9.7694 O   0  0  0  0  0  0  0  0  0  0  0  0
    0.1752  -17.2082   10.6345 C   0  0  0  0  0  0  0  0  0  0  0  0
   -0.7731  -18.0769    9.8081 C   0  0  0  0  0  0  0  0  0  0  0  0
   -1.1000  -19.4143   10.0553 C   0  0  0  0  0  0  0  0  0  0  0  0
   -2.2353  -19.6938    9.2746 C   0  0  0  0  0  0  0  0  0  0  0  0
   -2.5600  -18.6556    8.5052 N   0  0  0  0  0  0  0  0  0  0  0  0
   -1.6195  -17.7265    8.7868 N   0  0  0  0  0  0  0  0  0  0  0  0
   -0.0809  -13.9232   13.3541 H   0  0  0  0  0  0  0  0  0  0  0  0
   -0.5488  -12.2301   13.2658 H   0  0  0  0  0  0  0  0  0  0  0  0
    0.9685  -12.5928   13.6510 H   0  0  0  0  0  0  0  0  0  0  0  0
    1.3984  -12.9940   11.0615 H   0  0  0  0  0  0  0  0  0  0  0  0
   -0.3501  -10.7319   11.9265 H   0  0  0  0  0  0  0  0  0  0  0  0
    1.2075  -11.1234   11.9246 H   0  0  0  0  0  0  0  0  0  0  0  0
    2.5454   -9.8010   10.7293 H   0  0  0  0  0  0  0  0  0  0  0  0
    3.6345   -7.1048   11.8729 H   0  0  0  0  0  0  0  0  0  0  0  0
    2.1525   -6.1521   12.0559 H   0  0  0  0  0  0  0  0  0  0  0  0
    2.4611   -4.1898    9.4493 H   0  0  0  0  0  0  0  0  0  0  0  0
    5.3777   -2.8284   12.0288 H   0  0  0  0  0  0  0  0  0  0  0  0
   -0.8925  -14.9217   11.6769 H   0  0  0  0  0  0  0  0  0  0  0  0
   -0.0012  -17.3708   11.6884 H   0  0  0  0  0  0  0  0  0  0  0  0
    1.1195  -17.7775   10.5299 H   0  0  0  0  0  0  0  0  0  0  0  0
   -0.6478  -20.0597   10.7963 H   0  0  0  0  0  0  0  0  0  0  0  0
   -2.8378  -20.5938    9.2430 H   0  0  0  0  0  0  0  0  0  0  0  0
   -1.6809  -16.8518    8.2823 H   0  0  0  0  0  0  0  0  0  0  0  0
  1  2  1  0
  2  3  1  0
  3  4  1  0
  4  5  1  0
  5  6  2  0
  5  7  1  0
  7  8  1  0
  8  9  1  0
  9 10  2  0
 10 11  1  0
 10 12  1  0
 12 13  2  0
  2 14  1  0
 14 15  1  0
 15 16  2  0
 15 17  1  0
 17 18  1  0
 18 19  2  0
 19 20  1  0
 20 21  2  0
 21 22  1  0
 13  8  1  0
 22 18  1  0
  1 23  1  0
  1 24  1  0
  1 25  1  0
  2 26  1  0
  3 27  1  0
  3 28  1  0
  4 29  1  0
  7 30  1  0
  7 31  1  0
  9 32  1  0
 12 33  1  0
 14 34  1  0
 17 35  1  0
 17 36  1  0
 19 37  1  0
 20 38  1  0
 22 39  1  0
M  END
>  <Energy>  (603) 
477.35705036999934

>  <compound_id>  (603) 
13516

>  <target_id>  (603) 
1

>  <reference_id>  (603) 
81

>  <inspiration_ids>  (603) 
[112, 81]

>  <energy_score>  (603) 
398.4130907603727

>  <distance_score>  (603) 
11.850857136571838

>  <path>  (603) 
/opt/xchem-fragalysis-2/maxwin/BulkDock/SCRATCH/511016/C13516-P81/C13516-P81.minimised.mol

>  <scratch_subdir>  (603) 
/opt/xchem-fragalysis-2/maxwin/BulkDock/SCRATCH/511016/C13516-P81

>  <fragmenstein_runtime>  (603) 
22.66176724433899

>  <fragmenstein_outcome>  (603) 
too moved

>  <fragmenstein_mode>  (603) 
expansion

>  <fragmenstein_error>  (603) 


$$$$
C13517-P112
     RDKit          3D

 42 43  0  0  0  0  0  0  0  0999 V2000
    4.0661  -18.3110   14.4552 C   0  0  0  0  0  0  0  0  0  0  0  0
    3.6104  -18.0349   13.0050 C   0  0  0  0  0  0  0  0  0  0  0  0
    4.3559  -18.9898   12.0475 C   0  0  0  0  0  0  0  0  0  0  0  0
    4.5307  -16.2162   12.5515 C   0  0  0  0  0  0  0  0  0  0  0  0
    5.8484  -14.5781   12.5003 N   0  0  0  0  0  0  0  0  0  0  0  0
    5.9351  -12.8508   13.5228 C   0  0  0  0  0  0  0  0  0  0  0  0
    5.0891  -12.5021   14.3151 O   0  0  0  0  0  0  0  0  0  0  0  0
    6.8865  -11.7825   13.3658 C   0  0  0  0  0  0  0  0  0  0  0  0
    8.5579  -10.7995   14.2108 C   0  0  0  0  0  0  0  0  0  0  0  0
    9.7984  -11.3142   14.8387 C   0  0  0  0  0  0  0  0  0  0  0  0
   10.4768  -10.2713   15.4454 C   0  0  0  0  0  0  0  0  0  0  0  0
    9.7529   -9.1786   15.2997 N   0  0  0  0  0  0  0  0  0  0  0  0
    8.5601   -9.6684   15.0387 N   0  0  0  0  0  0  0  0  0  0  0  0
    1.6686  -18.8675   12.9314 C   0  0  0  0  0  0  0  0  0  0  0  0
    0.2810  -18.4747   14.2107 N   0  0  0  0  0  0  0  0  0  0  0  0
   -1.5040  -19.1799   14.4812 C   0  0  0  0  0  0  0  0  0  0  0  0
   -2.1157  -19.9563   13.8291 O   0  0  0  0  0  0  0  0  0  0  0  0
   -2.3060  -18.8556   15.7636 C   0  0  0  0  0  0  0  0  0  0  0  0
   -1.9768  -19.2931   17.0490 N   0  0  0  0  0  0  0  0  0  0  0  0
   -2.9811  -19.5801   17.8859 N   0  0  0  0  0  0  0  0  0  0  0  0
   -4.0461  -19.1779   17.2166 C   0  0  0  0  0  0  0  0  0  0  0  0
   -3.6918  -18.6565   15.9582 C   0  0  0  0  0  0  0  0  0  0  0  0
   -4.8671  -17.8402   15.0862 Cl  0  0  0  0  0  0  0  0  0  0  0  0
    3.8447  -19.3432   14.7441 H   0  0  0  0  0  0  0  0  0  0  0  0
    3.5564  -17.6461   15.1579 H   0  0  0  0  0  0  0  0  0  0  0  0
    5.1439  -18.1501   14.5600 H   0  0  0  0  0  0  0  0  0  0  0  0
    4.0205  -18.8238   11.0194 H   0  0  0  0  0  0  0  0  0  0  0  0
    4.1649  -20.0365   12.3043 H   0  0  0  0  0  0  0  0  0  0  0  0
    5.4371  -18.8242   12.0891 H   0  0  0  0  0  0  0  0  0  0  0  0
    3.5751  -15.9673   12.7047 H   0  0  0  0  0  0  0  0  0  0  0  0
    4.5024  -16.4489   11.4520 H   0  0  0  0  0  0  0  0  0  0  0  0
    6.5909  -14.6145   11.8415 H   0  0  0  0  0  0  0  0  0  0  0  0
    6.2593  -10.9552   13.9401 H   0  0  0  0  0  0  0  0  0  0  0  0
    6.1241  -11.1203   12.8300 H   0  0  0  0  0  0  0  0  0  0  0  0
   10.1735  -12.3200   14.8756 H   0  0  0  0  0  0  0  0  0  0  0  0
   11.4435  -10.2409   15.9283 H   0  0  0  0  0  0  0  0  0  0  0  0
    8.0521   -9.7511   15.8911 H   0  0  0  0  0  0  0  0  0  0  0  0
    1.8239  -19.9377   13.0971 H   0  0  0  0  0  0  0  0  0  0  0  0
    1.2411  -18.6494   11.9473 H   0  0  0  0  0  0  0  0  0  0  0  0
    0.5598  -17.9119   14.9454 H   0  0  0  0  0  0  0  0  0  0  0  0
   -1.0604  -19.4270   17.4441 H   0  0  0  0  0  0  0  0  0  0  0  0
   -5.0213  -19.2305   17.6844 H   0  0  0  0  0  0  0  0  0  0  0  0
  1  2  1  0
  2  3  1  0
  2  4  1  0
  4  5  1  0
  5  6  1  0
  6  7  2  0
  6  8  1  0
  8  9  1  0
  9 10  2  0
 10 11  1  0
 11 12  2  0
 12 13  1  0
  2 14  1  0
 14 15  1  0
 15 16  1  0
 16 17  2  0
 16 18  1  0
 18 19  1  0
 19 20  1  0
 20 21  2  0
 21 22  1  0
 22 23  1  0
 13  9  1  0
 22 18  2  0
  1 24  1  0
  1 25  1  0
  1 26  1  0
  3 27  1  0
  3 28  1  0
  3 29  1  0
  4 30  1  0
  4 31  1  0
  5 32  1  0
  8 33  1  0
  8 34  1  0
 10 35  1  0
 11 36  1  0
 13 37  1  0
 14 38  1  0
 14 39  1  0
 15 40  1  0
 19 41  1  0
 21 42  1  0
M  END
>  <Energy>  (604) 
909.40014101638599

>  <compound_id>  (604) 
13517

>  <target_id>  (604) 
1

>  <reference_id>  (604) 
112

>  <inspiration_ids>  (604) 
[112, 81]

>  <energy_score>  (604) 
865.9626439824159

>  <distance_score>  (604) 
10.695172388868228

>  <path>  (604) 
/opt/xchem-fragalysis-2/maxwin/BulkDock/SCRATCH/511016/C13517-P112/C13517-P112.minimised.mol

>  <scratch_subdir>  (604) 
/opt/xchem-fragalysis-2/maxwin/BulkDock/SCRATCH/511016/C13517-P112

>  <fragmenstein_runtime>  (604) 
15.35550045967102

>  <fragmenstein_outcome>  (604) 
too moved

>  <fragmenstein_mode>  (604) 
expansion

>  <fragmenstein_error>  (604) 


$$$$
C13517-P81
     RDKit          3D

 42 43  0  0  0  0  0  0  0  0999 V2000
    1.0844  -17.3913   11.9696 C   0  0  0  0  0  0  0  0  0  0  0  0
    0.4469  -15.8738   11.6058 C   0  0  0  0  0  0  0  0  0  0  0  0
    1.4841  -15.9071   10.1372 C   0  0  0  0  0  0  0  0  0  0  0  0
    1.0168  -14.1886   12.8975 C   0  0  0  0  0  0  0  0  0  0  0  0
    1.7369  -12.9048   14.4820 N   0  0  0  0  0  0  0  0  0  0  0  0
    3.6161  -12.1077   14.8953 C   0  0  0  0  0  0  0  0  0  0  0  0
    4.6510  -12.4226   14.2391 O   0  0  0  0  0  0  0  0  0  0  0  0
    3.9221  -11.0729   15.7751 C   0  0  0  0  0  0  0  0  0  0  0  0
    4.9671  -10.1107   14.3241 C   0  0  0  0  0  0  0  0  0  0  0  0
    5.7373   -8.5211   14.0477 C   0  0  0  0  0  0  0  0  0  0  0  0
    5.0135   -7.5043   13.5353 C   0  0  0  0  0  0  0  0  0  0  0  0
    4.0355   -8.2195   13.2319 N   0  0  0  0  0  0  0  0  0  0  0  0
    4.1107   -9.6027   13.4744 N   0  0  0  0  0  0  0  0  0  0  0  0
   -0.9246  -16.9235   10.3256 C   0  0  0  0  0  0  0  0  0  0  0  0
   -2.9083  -17.7731   10.1292 N   0  0  0  0  0  0  0  0  0  0  0  0
   -3.9063  -19.1587   11.2769 C   0  0  0  0  0  0  0  0  0  0  0  0
   -3.4934  -19.8381   12.2487 O   0  0  0  0  0  0  0  0  0  0  0  0
   -5.5864  -19.4143   11.1105 C   0  0  0  0  0  0  0  0  0  0  0  0
   -5.9883  -20.0675   12.2924 N   0  0  0  0  0  0  0  0  0  0  0  0
   -7.2866  -20.4496   12.3911 N   0  0  0  0  0  0  0  0  0  0  0  0
   -7.9580  -19.6988   11.5377 C   0  0  0  0  0  0  0  0  0  0  0  0
   -7.0788  -18.7721   11.0348 C   0  0  0  0  0  0  0  0  0  0  0  0
   -7.7996  -17.5508    9.9870 Cl  0  0  0  0  0  0  0  0  0  0  0  0
    0.9123  -18.0610   11.1126 H   0  0  0  0  0  0  0  0  0  0  0  0
    0.6301  -18.0045   12.7202 H   0  0  0  0  0  0  0  0  0  0  0  0
    2.1650  -17.4824   12.0794 H   0  0  0  0  0  0  0  0  0  0  0  0
    2.0756  -16.8299   10.0681 H   0  0  0  0  0  0  0  0  0  0  0  0
    2.2277  -15.1604    9.8778 H   0  0  0  0  0  0  0  0  0  0  0  0
    0.8912  -15.9186    9.2298 H   0  0  0  0  0  0  0  0  0  0  0  0
    0.6164  -13.4240   12.1924 H   0  0  0  0  0  0  0  0  0  0  0  0
    0.0408  -14.2394   13.3928 H   0  0  0  0  0  0  0  0  0  0  0  0
    1.0942  -12.5929   15.1546 H   0  0  0  0  0  0  0  0  0  0  0  0
    3.3550  -10.3766   16.3872 H   0  0  0  0  0  0  0  0  0  0  0  0
    4.1817  -11.7333   16.5694 H   0  0  0  0  0  0  0  0  0  0  0  0
    6.6823   -8.1445   14.3751 H   0  0  0  0  0  0  0  0  0  0  0  0
    4.9910   -6.4955   13.2156 H   0  0  0  0  0  0  0  0  0  0  0  0
    3.3189  -10.1077   13.1027 H   0  0  0  0  0  0  0  0  0  0  0  0
   -0.3455  -17.2444    9.4309 H   0  0  0  0  0  0  0  0  0  0  0  0
   -1.2858  -15.9569    9.9390 H   0  0  0  0  0  0  0  0  0  0  0  0
   -3.4681  -17.4535    9.3630 H   0  0  0  0  0  0  0  0  0  0  0  0
   -5.3283  -20.7159   12.7001 H   0  0  0  0  0  0  0  0  0  0  0  0
   -9.0252  -19.8120   11.4156 H   0  0  0  0  0  0  0  0  0  0  0  0
  1  2  1  0
  2  3  1  0
  2  4  1  0
  4  5  1  0
  5  6  1  0
  6  7  2  0
  6  8  1  0
  8  9  1  0
  9 10  2  0
 10 11  1  0
 11 12  2  0
 12 13  1  0
  2 14  1  0
 14 15  1  0
 15 16  1  0
 16 17  2  0
 16 18  1  0
 18 19  1  0
 19 20  1  0
 20 21  2  0
 21 22  1  0
 22 23  1  0
 13  9  1  0
 22 18  2  0
  1 24  1  0
  1 25  1  0
  1 26  1  0
  3 27  1  0
  3 28  1  0
  3 29  1  0
  4 30  1  0
  4 31  1  0
  5 32  1  0
  8 33  1  0
  8 34  1  0
 10 35  1  0
 11 36  1  0
 13 37  1  0
 14 38  1  0
 14 39  1  0
 15 40  1  0
 19 41  1  0
 21 42  1  0
M  END
>  <Energy>  (605) 
1413.9378035877344

>  <compound_id>  (605) 
13517

>  <target_id>  (605) 
1

>  <reference_id>  (605) 
81

>  <inspiration_ids>  (605) 
[112, 81]

>  <energy_score>  (605) 
1370.5003065537885

>  <distance_score>  (605) 
9.421590551889555

>  <path>  (605) 
/opt/xchem-fragalysis-2/maxwin/BulkDock/SCRATCH/511016/C13517-P81/C13517-P81.minimised.mol

>  <scratch_subdir>  (605) 
/opt/xchem-fragalysis-2/maxwin/BulkDock/SCRATCH/511016/C13517-P81

>  <fragmenstein_runtime>  (605) 
15.941869497299194

>  <fragmenstein_outcome>  (605) 
too moved

>  <fragmenstein_mode>  (605) 
expansion

>  <fragmenstein_error>  (605) 


$$$$
C13518-P112
     RDKit          3D

 45 46  0  0  0  0  0  0  0  0999 V2000
    0.4363  -15.2908   11.5845 C   0  0  0  0  0  0  0  0  0  0  0  0
   -0.8034  -14.4720   11.8579 C   0  0  0  0  0  0  0  0  0  0  0  0
   -1.8659  -15.0411   10.8867 C   0  0  0  0  0  0  0  0  0  0  0  0
   -1.3097  -13.8458   13.5845 C   0  0  0  0  0  0  0  0  0  0  0  0
   -3.5521  -14.0715   13.4148 C   0  0  0  0  0  0  0  0  0  0  0  0
   -5.1672  -14.9601   12.7261 N   0  0  0  0  0  0  0  0  0  0  0  0
   -5.9021  -16.5960   13.1144 C   0  0  0  0  0  0  0  0  0  0  0  0
   -5.4836  -17.2868   13.9675 O   0  0  0  0  0  0  0  0  0  0  0  0
   -7.2375  -17.5120   12.1571 C   0  0  0  0  0  0  0  0  0  0  0  0
   -8.5353  -17.9186   12.3845 N   0  0  0  0  0  0  0  0  0  0  0  0
   -8.8478  -19.0476   11.7038 N   0  0  0  0  0  0  0  0  0  0  0  0
   -8.3994  -18.7381   10.5093 C   0  0  0  0  0  0  0  0  0  0  0  0
   -7.6511  -17.5764   10.6749 C   0  0  0  0  0  0  0  0  0  0  0  0
   -7.6214  -16.4889    9.3294 Cl  0  0  0  0  0  0  0  0  0  0  0  0
   -0.0377  -12.4824   13.1547 N   0  0  0  0  0  0  0  0  0  0  0  0
    1.4780  -12.0261   13.9214 C   0  0  0  0  0  0  0  0  0  0  0  0
    1.8648  -12.6370   14.8542 O   0  0  0  0  0  0  0  0  0  0  0  0
    2.8940  -10.5760   13.4321 C   0  0  0  0  0  0  0  0  0  0  0  0
    4.7768  -10.7604   13.8923 C   0  0  0  0  0  0  0  0  0  0  0  0
    6.3774  -10.9755   13.3477 C   0  0  0  0  0  0  0  0  0  0  0  0
    7.2371  -12.1118   13.0633 C   0  0  0  0  0  0  0  0  0  0  0  0
    8.6182  -11.7186   13.0966 C   0  0  0  0  0  0  0  0  0  0  0  0
    8.7715  -10.4364   13.4206 N   0  0  0  0  0  0  0  0  0  0  0  0
    7.4863   -9.9970   13.6031 N   0  0  0  0  0  0  0  0  0  0  0  0
    0.4528  -16.3152   11.8945 H   0  0  0  0  0  0  0  0  0  0  0  0
    0.6178  -15.6095   10.5611 H   0  0  0  0  0  0  0  0  0  0  0  0
    1.2360  -14.6644   11.9123 H   0  0  0  0  0  0  0  0  0  0  0  0
   -0.5303  -13.5293   11.3958 H   0  0  0  0  0  0  0  0  0  0  0  0
   -1.3690  -15.8502   10.3696 H   0  0  0  0  0  0  0  0  0  0  0  0
   -2.8307  -15.1977   11.3154 H   0  0  0  0  0  0  0  0  0  0  0  0
   -2.3248  -14.6120   10.0170 H   0  0  0  0  0  0  0  0  0  0  0  0
   -1.2578  -14.0794   14.6619 H   0  0  0  0  0  0  0  0  0  0  0  0
   -3.7764  -15.1285   13.3421 H   0  0  0  0  0  0  0  0  0  0  0  0
   -4.1089  -13.3360   12.8978 H   0  0  0  0  0  0  0  0  0  0  0  0
   -5.6240  -14.5749   11.9104 H   0  0  0  0  0  0  0  0  0  0  0  0
   -9.2199  -17.4837   12.9941 H   0  0  0  0  0  0  0  0  0  0  0  0
   -8.7686  -19.2453    9.6286 H   0  0  0  0  0  0  0  0  0  0  0  0
   -0.2474  -11.8020   12.4339 H   0  0  0  0  0  0  0  0  0  0  0  0
    3.0852   -9.9946   14.3388 H   0  0  0  0  0  0  0  0  0  0  0  0
    2.8806  -10.3431   12.2940 H   0  0  0  0  0  0  0  0  0  0  0  0
    4.6788  -11.3790   14.7676 H   0  0  0  0  0  0  0  0  0  0  0  0
    4.9234   -9.7410   14.1306 H   0  0  0  0  0  0  0  0  0  0  0  0
    6.9006  -13.1194   12.9666 H   0  0  0  0  0  0  0  0  0  0  0  0
    9.4895  -12.3404   12.9507 H   0  0  0  0  0  0  0  0  0  0  0  0
    7.3748   -8.9963   13.6691 H   0  0  0  0  0  0  0  0  0  0  0  0
  1  2  1  0
  2  3  1  0
  2  4  1  0
  4  5  1  0
  5  6  1  0
  6  7  1  0
  7  8  2  0
  7  9  1  0
  9 10  1  0
 10 11  1  0
 11 12  2  0
 12 13  1  0
 13 14  1  0
  4 15  1  0
 15 16  1  0
 16 17  2  0
 16 18  1  0
 18 19  1  0
 19 20  1  0
 20 21  2  0
 21 22  1  0
 22 23  2  0
 23 24  1  0
 13  9  2  0
 24 20  1  0
  1 25  1  0
  1 26  1  0
  1 27  1  0
  2 28  1  0
  3 29  1  0
  3 30  1  0
  3 31  1  0
  4 32  1  0
  5 33  1  0
  5 34  1  0
  6 35  1  0
 10 36  1  0
 12 37  1  0
 15 38  1  0
 18 39  1  0
 18 40  1  0
 19 41  1  0
 19 42  1  0
 21 43  1  0
 22 44  1  0
 24 45  1  0
M  END
>  <Energy>  (606) 
925.80297069844357

>  <compound_id>  (606) 
13518

>  <target_id>  (606) 
1

>  <reference_id>  (606) 
112

>  <inspiration_ids>  (606) 
[112, 81]

>  <energy_score>  (606) 
911.9495047710004

>  <distance_score>  (606) 
9.740563507565769

>  <path>  (606) 
/opt/xchem-fragalysis-2/maxwin/BulkDock/SCRATCH/511016/C13518-P112/C13518-P112.minimised.mol

>  <scratch_subdir>  (606) 
/opt/xchem-fragalysis-2/maxwin/BulkDock/SCRATCH/511016/C13518-P112

>  <fragmenstein_runtime>  (606) 
15.84151816368103

>  <fragmenstein_outcome>  (606) 
too moved

>  <fragmenstein_mode>  (606) 
expansion

>  <fragmenstein_error>  (606) 


$$$$
C13518-P81
     RDKit          3D

 45 46  0  0  0  0  0  0  0  0999 V2000
    0.1827  -12.4519   11.5800 C   0  0  0  0  0  0  0  0  0  0  0  0
   -0.4074  -13.7826   12.4046 C   0  0  0  0  0  0  0  0  0  0  0  0
   -0.1722  -14.9311   11.4495 C   0  0  0  0  0  0  0  0  0  0  0  0
   -1.2192  -14.1762   14.2073 C   0  0  0  0  0  0  0  0  0  0  0  0
   -2.9067  -15.6673   14.9217 C   0  0  0  0  0  0  0  0  0  0  0  0
   -3.8442  -17.5127   15.7939 N   0  0  0  0  0  0  0  0  0  0  0  0
   -5.7437  -18.4491   15.6689 C   0  0  0  0  0  0  0  0  0  0  0  0
   -6.5092  -17.7429   15.0281 O   0  0  0  0  0  0  0  0  0  0  0  0
   -6.7732  -20.4831   16.1666 C   0  0  0  0  0  0  0  0  0  0  0  0
   -7.7556  -22.0590   15.3155 N   0  0  0  0  0  0  0  0  0  0  0  0
   -9.1874  -22.1056   15.0317 N   0  0  0  0  0  0  0  0  0  0  0  0
   -8.7104  -22.1020   13.8261 C   0  0  0  0  0  0  0  0  0  0  0  0
   -7.4026  -21.1897   14.3318 C   0  0  0  0  0  0  0  0  0  0  0  0
   -6.6907  -20.2248   12.5596 Cl  0  0  0  0  0  0  0  0  0  0  0  0
    0.7168  -13.4732   13.8944 N   0  0  0  0  0  0  0  0  0  0  0  0
    1.9356  -12.5599   15.0109 C   0  0  0  0  0  0  0  0  0  0  0  0
    1.5484  -12.4535   16.0560 O   0  0  0  0  0  0  0  0  0  0  0  0
    3.9000  -11.5911   14.8600 C   0  0  0  0  0  0  0  0  0  0  0  0
    5.6154  -10.7412   14.0874 C   0  0  0  0  0  0  0  0  0  0  0  0
    7.6030  -10.2132   14.4250 C   0  0  0  0  0  0  0  0  0  0  0  0
    8.9556  -10.2462   14.0923 C   0  0  0  0  0  0  0  0  0  0  0  0
    9.3219   -9.2716   14.9919 C   0  0  0  0  0  0  0  0  0  0  0  0
    9.5284   -9.9963   16.0488 N   0  0  0  0  0  0  0  0  0  0  0  0
    8.4074  -10.6530   15.8602 N   0  0  0  0  0  0  0  0  0  0  0  0
   -0.5282  -11.9589   10.9449 H   0  0  0  0  0  0  0  0  0  0  0  0
    1.0840  -12.6943   11.0480 H   0  0  0  0  0  0  0  0  0  0  0  0
    0.5456  -11.5986   12.1569 H   0  0  0  0  0  0  0  0  0  0  0  0
   -0.5514  -12.7429   12.8165 H   0  0  0  0  0  0  0  0  0  0  0  0
    0.0836  -15.8657   11.9451 H   0  0  0  0  0  0  0  0  0  0  0  0
    0.7456  -14.9458   10.9089 H   0  0  0  0  0  0  0  0  0  0  0  0
   -1.0178  -15.0864   10.7881 H   0  0  0  0  0  0  0  0  0  0  0  0
   -0.4614  -14.9054   13.6640 H   0  0  0  0  0  0  0  0  0  0  0  0
   -3.4846  -15.1285   15.6809 H   0  0  0  0  0  0  0  0  0  0  0  0
   -2.3286  -15.2969   15.7928 H   0  0  0  0  0  0  0  0  0  0  0  0
   -3.2690  -18.0620   16.3904 H   0  0  0  0  0  0  0  0  0  0  0  0
   -7.5460  -22.9425   15.7829 H   0  0  0  0  0  0  0  0  0  0  0  0
   -9.1323  -22.2676   12.8426 H   0  0  0  0  0  0  0  0  0  0  0  0
    1.1495  -13.6124   13.0225 H   0  0  0  0  0  0  0  0  0  0  0  0
    4.4624  -12.4116   14.4407 H   0  0  0  0  0  0  0  0  0  0  0  0
    3.5086  -10.7696   14.2249 H   0  0  0  0  0  0  0  0  0  0  0  0
    5.1629   -9.7590   13.9585 H   0  0  0  0  0  0  0  0  0  0  0  0
    5.6307  -11.2555   13.1588 H   0  0  0  0  0  0  0  0  0  0  0  0
    9.5762  -11.1200   13.9139 H   0  0  0  0  0  0  0  0  0  0  0  0
    9.0860   -8.2162   15.0424 H   0  0  0  0  0  0  0  0  0  0  0  0
    8.2783  -11.5645   16.2634 H   0  0  0  0  0  0  0  0  0  0  0  0
  1  2  1  0
  2  3  1  0
  2  4  1  0
  4  5  1  0
  5  6  1  0
  6  7  1  0
  7  8  2  0
  7  9  1  0
  9 10  1  0
 10 11  1  0
 11 12  2  0
 12 13  1  0
 13 14  1  0
  4 15  1  0
 15 16  1  0
 16 17  2  0
 16 18  1  0
 18 19  1  0
 19 20  1  0
 20 21  2  0
 21 22  1  0
 22 23  2  0
 23 24  1  0
 13  9  2  0
 24 20  1  0
  1 25  1  0
  1 26  1  0
  1 27  1  0
  2 28  1  0
  3 29  1  0
  3 30  1  0
  3 31  1  0
  4 32  1  0
  5 33  1  0
  5 34  1  0
  6 35  1  0
 10 36  1  0
 12 37  1  0
 15 38  1  0
 18 39  1  0
 18 40  1  0
 19 41  1  0
 19 42  1  0
 21 43  1  0
 22 44  1  0
 24 45  1  0
M  END
>  <Energy>  (607) 
2793.4700478920404

>  <compound_id>  (607) 
13518

>  <target_id>  (607) 
1

>  <reference_id>  (607) 
81

>  <inspiration_ids>  (607) 
[112, 81]

>  <energy_score>  (607) 
2779.6165819646235

>  <distance_score>  (607) 
8.15158531256117

>  <path>  (607) 
/opt/xchem-fragalysis-2/maxwin/BulkDock/SCRATCH/511016/C13518-P81/C13518-P81.minimised.mol

>  <scratch_subdir>  (607) 
/opt/xchem-fragalysis-2/maxwin/BulkDock/SCRATCH/511016/C13518-P81

>  <fragmenstein_runtime>  (607) 
18.793642044067383

>  <fragmenstein_outcome>  (607) 
too moved

>  <fragmenstein_mode>  (607) 
expansion

>  <fragmenstein_error>  (607) 


$$$$
C13519-P112
     RDKit          3D

 40 41  0  0  0  0  0  0  0  0999 V2000
    9.9832  -17.8360   16.2016 C   0  0  0  0  0  0  0  0  0  0  0  0
    9.3790  -16.7114   15.4262 N   0  0  0  0  0  0  0  0  0  0  0  0
    8.7426  -17.8992   14.6317 C   0  0  0  0  0  0  0  0  0  0  0  0
    7.2611  -18.3752   14.9786 C   0  0  0  0  0  0  0  0  0  0  0  0
    6.4329  -17.2763   15.3419 O   0  0  0  0  0  0  0  0  0  0  0  0
    6.6445  -19.1187   13.7482 C   0  0  0  0  0  0  0  0  0  0  0  0
    5.2568  -19.5978   13.7781 N   0  0  0  0  0  0  0  0  0  0  0  0
    4.1895  -19.4641   12.8155 C   0  0  0  0  0  0  0  0  0  0  0  0
    4.1424  -18.8598   11.7840 O   0  0  0  0  0  0  0  0  0  0  0  0
    2.9931  -20.2867   13.1014 C   0  0  0  0  0  0  0  0  0  0  0  0
    1.8130  -20.0926   12.3932 N   0  0  0  0  0  0  0  0  0  0  0  0
    0.8727  -21.0559   12.5606 N   0  0  0  0  0  0  0  0  0  0  0  0
    1.4129  -21.8225   13.5106 C   0  0  0  0  0  0  0  0  0  0  0  0
    2.6974  -21.3744   13.9036 C   0  0  0  0  0  0  0  0  0  0  0  0
    3.6792  -22.1460   15.0541 Cl  0  0  0  0  0  0  0  0  0  0  0  0
   10.4149  -15.7516   15.0389 C   0  0  0  0  0  0  0  0  0  0  0  0
   11.0972  -15.6949   14.0442 O   0  0  0  0  0  0  0  0  0  0  0  0
   10.6865  -14.7364   16.1904 C   0  0  0  0  0  0  0  0  0  0  0  0
   11.0390  -13.2953   15.8288 C   0  0  0  0  0  0  0  0  0  0  0  0
   11.1340  -12.1624   16.6242 C   0  0  0  0  0  0  0  0  0  0  0  0
   11.4855  -11.1124   15.7619 C   0  0  0  0  0  0  0  0  0  0  0  0
   11.6859  -11.5365   14.5175 N   0  0  0  0  0  0  0  0  0  0  0  0
   11.3641  -12.8520   14.5691 N   0  0  0  0  0  0  0  0  0  0  0  0
    9.2696  -18.5199   16.6808 H   0  0  0  0  0  0  0  0  0  0  0  0
   10.4848  -17.3608   17.0573 H   0  0  0  0  0  0  0  0  0  0  0  0
   10.8102  -18.3357   15.6739 H   0  0  0  0  0  0  0  0  0  0  0  0
    8.6678  -17.4412   13.6396 H   0  0  0  0  0  0  0  0  0  0  0  0
    9.3964  -18.7525   14.3728 H   0  0  0  0  0  0  0  0  0  0  0  0
    7.2769  -19.0559   15.8352 H   0  0  0  0  0  0  0  0  0  0  0  0
    6.7839  -16.4780   14.8915 H   0  0  0  0  0  0  0  0  0  0  0  0
    7.2575  -19.9998   13.5269 H   0  0  0  0  0  0  0  0  0  0  0  0
    6.7023  -18.4640   12.8735 H   0  0  0  0  0  0  0  0  0  0  0  0
    4.9738  -20.2550   14.4954 H   0  0  0  0  0  0  0  0  0  0  0  0
    1.6491  -19.3443   11.7245 H   0  0  0  0  0  0  0  0  0  0  0  0
    0.8600  -22.6759   13.8767 H   0  0  0  0  0  0  0  0  0  0  0  0
    9.8511  -14.7476   16.8902 H   0  0  0  0  0  0  0  0  0  0  0  0
   11.5456  -15.1417   16.7425 H   0  0  0  0  0  0  0  0  0  0  0  0
   10.9551  -12.1025   17.6873 H   0  0  0  0  0  0  0  0  0  0  0  0
   11.6242  -10.0658   15.9914 H   0  0  0  0  0  0  0  0  0  0  0  0
   11.3414  -13.3876   13.7029 H   0  0  0  0  0  0  0  0  0  0  0  0
  1  2  1  0
  2  3  1  0
  3  4  1  0
  4  5  1  0
  4  6  1  0
  6  7  1  0
  7  8  1  0
  8  9  2  0
  8 10  1  0
 10 11  1  0
 11 12  1  0
 12 13  2  0
 13 14  1  0
 14 15  1  0
  2 16  1  0
 16 17  2  0
 16 18  1  0
 18 19  1  0
 19 20  2  0
 20 21  1  0
 21 22  2  0
 22 23  1  0
 14 10  2  0
 23 19  1  0
  1 24  1  0
  1 25  1  0
  1 26  1  0
  3 27  1  0
  3 28  1  0
  4 29  1  0
  5 30  1  0
  6 31  1  0
  6 32  1  0
  7 33  1  0
 11 34  1  0
 13 35  1  0
 18 36  1  0
 18 37  1  0
 20 38  1  0
 21 39  1  0
 23 40  1  0
M  END
>  <Energy>  (608) 
96.458721393534674

>  <compound_id>  (608) 
13519

>  <target_id>  (608) 
1

>  <reference_id>  (608) 
112

>  <inspiration_ids>  (608) 
[112, 81]

>  <energy_score>  (608) 
48.40341673901081

>  <distance_score>  (608) 
13.478621059746759

>  <path>  (608) 
/opt/xchem-fragalysis-2/maxwin/BulkDock/SCRATCH/511016/C13519-P112/C13519-P112.minimised.mol

>  <scratch_subdir>  (608) 
/opt/xchem-fragalysis-2/maxwin/BulkDock/SCRATCH/511016/C13519-P112

>  <fragmenstein_runtime>  (608) 
36.22112798690796

>  <fragmenstein_outcome>  (608) 
too moved

>  <fragmenstein_mode>  (608) 
expansion

>  <fragmenstein_error>  (608) 


$$$$
C13519-P81
     RDKit          3D

 40 41  0  0  0  0  0  0  0  0999 V2000
    0.2517  -12.2412   12.7950 C   0  0  0  0  0  0  0  0  0  0  0  0
    1.0972  -13.2399   13.7066 N   0  0  0  0  0  0  0  0  0  0  0  0
   -0.6283  -14.0173   13.7786 C   0  0  0  0  0  0  0  0  0  0  0  0
   -2.4861  -14.7184   14.5665 C   0  0  0  0  0  0  0  0  0  0  0  0
   -3.5990  -14.4951   13.0037 O   0  0  0  0  0  0  0  0  0  0  0  0
   -3.3766  -16.1964   15.0323 C   0  0  0  0  0  0  0  0  0  0  0  0
   -4.8225  -16.5296   15.1135 N   0  0  0  0  0  0  0  0  0  0  0  0
   -5.6390  -16.8978   16.2304 C   0  0  0  0  0  0  0  0  0  0  0  0
   -5.3488  -17.1158   17.3687 O   0  0  0  0  0  0  0  0  0  0  0  0
   -7.0800  -16.9068   15.9587 C   0  0  0  0  0  0  0  0  0  0  0  0
   -7.9352  -17.0546   17.0394 N   0  0  0  0  0  0  0  0  0  0  0  0
   -9.2363  -16.8283   16.7863 N   0  0  0  0  0  0  0  0  0  0  0  0
   -9.2356  -16.5360   15.4868 C   0  0  0  0  0  0  0  0  0  0  0  0
   -7.9379  -16.5674   14.9206 C   0  0  0  0  0  0  0  0  0  0  0  0
   -7.6624  -16.1970   13.2814 Cl  0  0  0  0  0  0  0  0  0  0  0  0
    2.1529  -12.4176   15.0266 C   0  0  0  0  0  0  0  0  0  0  0  0
    1.6255  -12.2966   16.0106 O   0  0  0  0  0  0  0  0  0  0  0  0
    4.2038  -11.5349   14.7693 C   0  0  0  0  0  0  0  0  0  0  0  0
    6.0101  -10.5460   14.0881 C   0  0  0  0  0  0  0  0  0  0  0  0
    7.9357  -10.3463   14.1542 C   0  0  0  0  0  0  0  0  0  0  0  0
    9.0426   -9.3664   14.9038 C   0  0  0  0  0  0  0  0  0  0  0  0
    8.0226   -8.6109   14.7310 N   0  0  0  0  0  0  0  0  0  0  0  0
    7.6921  -10.1641   14.8899 N   0  0  0  0  0  0  0  0  0  0  0  0
    0.8869  -11.5155   12.2491 H   0  0  0  0  0  0  0  0  0  0  0  0
   -0.0212  -12.8105   11.8932 H   0  0  0  0  0  0  0  0  0  0  0  0
   -0.5940  -11.6796   13.1491 H   0  0  0  0  0  0  0  0  0  0  0  0
   -1.0484  -13.0845   13.8945 H   0  0  0  0  0  0  0  0  0  0  0  0
   -0.3955  -14.4304   12.7668 H   0  0  0  0  0  0  0  0  0  0  0  0
   -3.1313  -13.9239   13.9303 H   0  0  0  0  0  0  0  0  0  0  0  0
   -2.9877  -14.5194   12.2469 H   0  0  0  0  0  0  0  0  0  0  0  0
   -2.8525  -17.0834   14.8057 H   0  0  0  0  0  0  0  0  0  0  0  0
   -3.4338  -15.8318   16.0644 H   0  0  0  0  0  0  0  0  0  0  0  0
   -5.3981  -16.5082   14.2758 H   0  0  0  0  0  0  0  0  0  0  0  0
   -7.6481  -17.2704   17.9894 H   0  0  0  0  0  0  0  0  0  0  0  0
  -10.1738  -16.3090   14.9972 H   0  0  0  0  0  0  0  0  0  0  0  0
    3.8023  -10.7217   14.1291 H   0  0  0  0  0  0  0  0  0  0  0  0
    4.6981  -12.3350   14.2191 H   0  0  0  0  0  0  0  0  0  0  0  0
    8.7540  -11.0102   13.7146 H   0  0  0  0  0  0  0  0  0  0  0  0
   10.0797   -9.5079   15.1213 H   0  0  0  0  0  0  0  0  0  0  0  0
    7.8094  -10.6034   15.8781 H   0  0  0  0  0  0  0  0  0  0  0  0
  1  2  1  0
  2  3  1  0
  3  4  1  0
  4  5  1  0
  4  6  1  0
  6  7  1  0
  7  8  1  0
  8  9  2  0
  8 10  1  0
 10 11  1  0
 11 12  1  0
 12 13  2  0
 13 14  1  0
 14 15  1  0
  2 16  1  0
 16 17  2  0
 16 18  1  0
 18 19  1  0
 19 20  2  0
 20 21  1  0
 21 22  2  0
 22 23  1  0
 14 10  2  0
 23 19  1  0
  1 24  1  0
  1 25  1  0
  1 26  1  0
  3 27  1  0
  3 28  1  0
  4 29  1  0
  5 30  1  0
  6 31  1  0
  6 32  1  0
  7 33  1  0
 11 34  1  0
 13 35  1  0
 18 36  1  0
 18 37  1  0
 20 38  1  0
 21 39  1  0
 23 40  1  0
M  END
>  <Energy>  (609) 
1545.4870143449557

>  <compound_id>  (609) 
13519

>  <target_id>  (609) 
1

>  <reference_id>  (609) 
81

>  <inspiration_ids>  (609) 
[112, 81]

>  <energy_score>  (609) 
1497.4317096904447

>  <distance_score>  (609) 
9.993066841666483

>  <path>  (609) 
/opt/xchem-fragalysis-2/maxwin/BulkDock/SCRATCH/511016/C13519-P81/C13519-P81.minimised.mol

>  <scratch_subdir>  (609) 
/opt/xchem-fragalysis-2/maxwin/BulkDock/SCRATCH/511016/C13519-P81

>  <fragmenstein_runtime>  (609) 
28.161009311676025

>  <fragmenstein_outcome>  (609) 
too moved

>  <fragmenstein_mode>  (609) 
expansion

>  <fragmenstein_error>  (609) 


$$$$
C13520-P112
     RDKit          3D

 37 38  0  0  0  0  0  0  0  0999 V2000
    5.8142  -10.8212   13.1970 O   0  0  0  0  0  0  0  0  0  0  0  0
    5.7903  -10.2165   14.2383 C   0  0  0  0  0  0  0  0  0  0  0  0
    7.6981   -8.7842   14.3749 C   0  0  0  0  0  0  0  0  0  0  0  0
    9.2299   -7.2142   15.0356 C   0  0  0  0  0  0  0  0  0  0  0  0
   10.6974   -5.8801   14.9376 C   0  0  0  0  0  0  0  0  0  0  0  0
   11.2010   -4.5235   15.5085 C   0  0  0  0  0  0  0  0  0  0  0  0
   11.1040   -5.0364   16.6785 N   0  0  0  0  0  0  0  0  0  0  0  0
   10.7725   -6.4076   15.9318 N   0  0  0  0  0  0  0  0  0  0  0  0
    4.1698  -10.8933   15.4252 N   0  0  0  0  0  0  0  0  0  0  0  0
    2.4965  -12.2954   15.1582 C   0  0  0  0  0  0  0  0  0  0  0  0
    1.2813  -13.6420   16.3718 C   0  0  0  0  0  0  0  0  0  0  0  0
    2.3494  -14.9325   17.1403 C   0  0  0  0  0  0  0  0  0  0  0  0
    1.7439  -15.9167   17.9795 O   0  0  0  0  0  0  0  0  0  0  0  0
   -0.5479  -14.2330   16.2358 N   0  0  0  0  0  0  0  0  0  0  0  0
   -1.8751  -14.0409   17.2330 C   0  0  0  0  0  0  0  0  0  0  0  0
   -2.0040  -13.3937   18.2363 O   0  0  0  0  0  0  0  0  0  0  0  0
   -3.3937  -15.1324   16.8345 C   0  0  0  0  0  0  0  0  0  0  0  0
   -3.5611  -16.6132   17.6670 N   0  0  0  0  0  0  0  0  0  0  0  0
   -4.8499  -17.0945   17.8565 N   0  0  0  0  0  0  0  0  0  0  0  0
   -5.3130  -16.7194   16.6959 C   0  0  0  0  0  0  0  0  0  0  0  0
   -4.1075  -16.2088   16.1186 C   0  0  0  0  0  0  0  0  0  0  0  0
   -3.6844  -17.1292   14.9081 Cl  0  0  0  0  0  0  0  0  0  0  0  0
    8.4809   -9.5539   14.2286 H   0  0  0  0  0  0  0  0  0  0  0  0
    7.5274   -8.2236   13.4396 H   0  0  0  0  0  0  0  0  0  0  0  0
   11.2590   -5.6527   14.0188 H   0  0  0  0  0  0  0  0  0  0  0  0
   11.7968   -3.6901   15.1693 H   0  0  0  0  0  0  0  0  0  0  0  0
   11.7290   -6.8830   16.1536 H   0  0  0  0  0  0  0  0  0  0  0  0
    4.1223  -10.3281   16.2354 H   0  0  0  0  0  0  0  0  0  0  0  0
    1.6303  -12.0150   14.3804 H   0  0  0  0  0  0  0  0  0  0  0  0
    2.6453  -13.0384   14.4896 H   0  0  0  0  0  0  0  0  0  0  0  0
    0.8423  -13.6194   17.4102 H   0  0  0  0  0  0  0  0  0  0  0  0
    2.8376  -15.5234   16.3642 H   0  0  0  0  0  0  0  0  0  0  0  0
    3.0819  -14.4479   17.7952 H   0  0  0  0  0  0  0  0  0  0  0  0
    2.3003  -16.7005   17.8261 H   0  0  0  0  0  0  0  0  0  0  0  0
   -0.7853  -14.7307   15.4880 H   0  0  0  0  0  0  0  0  0  0  0  0
   -2.8732  -16.8716   18.3605 H   0  0  0  0  0  0  0  0  0  0  0  0
   -6.1979  -17.1887   16.2870 H   0  0  0  0  0  0  0  0  0  0  0  0
  1  2  2  0
  2  3  1  0
  3  4  1  0
  4  5  2  0
  5  6  1  0
  6  7  2  0
  7  8  1  0
  2  9  1  0
  9 10  1  0
 10 11  1  0
 11 12  1  0
 12 13  1  0
 11 14  1  0
 14 15  1  0
 15 16  2  0
 15 17  1  0
 17 18  1  0
 18 19  1  0
 19 20  2  0
 20 21  1  0
 21 22  1  0
  8  4  1  0
 21 17  2  0
  3 23  1  0
  3 24  1  0
  5 25  1  0
  6 26  1  0
  8 27  1  0
  9 28  1  0
 10 29  1  0
 10 30  1  0
 11 31  1  0
 12 32  1  0
 12 33  1  0
 13 34  1  0
 14 35  1  0
 18 36  1  0
 20 37  1  0
M  END
>  <Energy>  (610) 
2121.662125951133

>  <compound_id>  (610) 
13520

>  <target_id>  (610) 
1

>  <reference_id>  (610) 
112

>  <inspiration_ids>  (610) 
[112, 81]

>  <energy_score>  (610) 
2097.2977326459877

>  <distance_score>  (610) 
10.898682938889506

>  <path>  (610) 
/opt/xchem-fragalysis-2/maxwin/BulkDock/SCRATCH/511016/C13520-P112/C13520-P112.minimised.mol

>  <scratch_subdir>  (610) 
/opt/xchem-fragalysis-2/maxwin/BulkDock/SCRATCH/511016/C13520-P112

>  <fragmenstein_runtime>  (610) 
15.728320360183716

>  <fragmenstein_outcome>  (610) 
too moved

>  <fragmenstein_mode>  (610) 
expansion

>  <fragmenstein_error>  (610) 


$$$$
C13520-P81
     RDKit          3D

 37 38  0  0  0  0  0  0  0  0999 V2000
    0.9298  -12.3416   14.1855 O   0  0  0  0  0  0  0  0  0  0  0  0
    0.3223  -12.8962   13.3237 C   0  0  0  0  0  0  0  0  0  0  0  0
    0.5011  -12.4839   11.7452 C   0  0  0  0  0  0  0  0  0  0  0  0
    1.7167  -11.3564   11.1483 C   0  0  0  0  0  0  0  0  0  0  0  0
    2.8948  -11.6034   10.4031 C   0  0  0  0  0  0  0  0  0  0  0  0
    3.2227  -10.4019    9.7090 C   0  0  0  0  0  0  0  0  0  0  0  0
    2.3986   -9.4190   10.0287 N   0  0  0  0  0  0  0  0  0  0  0  0
    1.5528  -10.0154   10.8971 N   0  0  0  0  0  0  0  0  0  0  0  0
   -0.8630  -14.0263   13.3852 N   0  0  0  0  0  0  0  0  0  0  0  0
   -1.9891  -14.9275   14.9503 C   0  0  0  0  0  0  0  0  0  0  0  0
   -2.7185  -16.9718   14.8211 C   0  0  0  0  0  0  0  0  0  0  0  0
   -4.1274  -17.2815   15.8886 C   0  0  0  0  0  0  0  0  0  0  0  0
   -4.4110  -16.2705   16.8063 O   0  0  0  0  0  0  0  0  0  0  0  0
   -1.9623  -18.5674   13.7391 N   0  0  0  0  0  0  0  0  0  0  0  0
   -2.3709  -20.4251   13.7300 C   0  0  0  0  0  0  0  0  0  0  0  0
   -3.1254  -21.0856   14.4529 O   0  0  0  0  0  0  0  0  0  0  0  0
   -1.5852  -21.3085   12.7540 C   0  0  0  0  0  0  0  0  0  0  0  0
   -0.2098  -21.3754   12.7806 N   0  0  0  0  0  0  0  0  0  0  0  0
    0.3169  -22.4457   12.1715 N   0  0  0  0  0  0  0  0  0  0  0  0
   -0.7377  -23.0357   11.6187 C   0  0  0  0  0  0  0  0  0  0  0  0
   -1.9350  -22.3564   11.8939 C   0  0  0  0  0  0  0  0  0  0  0  0
   -3.3391  -22.7934   11.0583 Cl  0  0  0  0  0  0  0  0  0  0  0  0
   -0.3858  -11.9403   11.4565 H   0  0  0  0  0  0  0  0  0  0  0  0
    0.5776  -13.4617   11.3092 H   0  0  0  0  0  0  0  0  0  0  0  0
    3.2983  -12.5876   10.1978 H   0  0  0  0  0  0  0  0  0  0  0  0
    3.9566  -10.2475    8.9324 H   0  0  0  0  0  0  0  0  0  0  0  0
    1.0123   -9.3955   11.4724 H   0  0  0  0  0  0  0  0  0  0  0  0
   -1.0935  -14.3553   12.4220 H   0  0  0  0  0  0  0  0  0  0  0  0
   -2.9485  -14.5894   15.2130 H   0  0  0  0  0  0  0  0  0  0  0  0
   -1.6378  -14.5783   15.9682 H   0  0  0  0  0  0  0  0  0  0  0  0
   -3.3834  -16.4570   14.1997 H   0  0  0  0  0  0  0  0  0  0  0  0
   -5.0266  -17.4397   15.2833 H   0  0  0  0  0  0  0  0  0  0  0  0
   -3.9693  -18.1143   16.5719 H   0  0  0  0  0  0  0  0  0  0  0  0
   -3.6607  -15.6724   16.6894 H   0  0  0  0  0  0  0  0  0  0  0  0
   -1.2449  -18.3047   12.7645 H   0  0  0  0  0  0  0  0  0  0  0  0
    0.3997  -20.7886   13.3488 H   0  0  0  0  0  0  0  0  0  0  0  0
   -0.5862  -23.9106   10.9997 H   0  0  0  0  0  0  0  0  0  0  0  0
  1  2  2  0
  2  3  1  0
  3  4  1  0
  4  5  2  0
  5  6  1  0
  6  7  2  0
  7  8  1  0
  2  9  1  0
  9 10  1  0
 10 11  1  0
 11 12  1  0
 12 13  1  0
 11 14  1  0
 14 15  1  0
 15 16  2  0
 15 17  1  0
 17 18  1  0
 18 19  1  0
 19 20  2  0
 20 21  1  0
 21 22  1  0
  8  4  1  0
 21 17  2  0
  3 23  1  0
  3 24  1  0
  5 25  1  0
  6 26  1  0
  8 27  1  0
  9 28  1  0
 10 29  1  0
 10 30  1  0
 11 31  1  0
 12 32  1  0
 12 33  1  0
 13 34  1  0
 14 35  1  0
 18 36  1  0
 20 37  1  0
M  END
>  <Energy>  (611) 
589.07839017257277

>  <compound_id>  (611) 
13520

>  <target_id>  (611) 
1

>  <reference_id>  (611) 
81

>  <inspiration_ids>  (611) 
[112, 81]

>  <energy_score>  (611) 
564.7139968674198

>  <distance_score>  (611) 
12.603155413585563

>  <path>  (611) 
/opt/xchem-fragalysis-2/maxwin/BulkDock/SCRATCH/511016/C13520-P81/C13520-P81.minimised.mol

>  <scratch_subdir>  (611) 
/opt/xchem-fragalysis-2/maxwin/BulkDock/SCRATCH/511016/C13520-P81

>  <fragmenstein_runtime>  (611) 
16.28844928741455

>  <fragmenstein_outcome>  (611) 
too moved

>  <fragmenstein_mode>  (611) 
expansion

>  <fragmenstein_error>  (611) 


$$$$
C13521-P112
     RDKit          3D

 40 41  0  0  0  0  0  0  0  0999 V2000
    4.1379  -15.2900   18.1239 O   0  0  0  0  0  0  0  0  0  0  0  0
    3.3454  -14.7091   17.4371 C   0  0  0  0  0  0  0  0  0  0  0  0
    3.4141  -12.5882   17.8060 C   0  0  0  0  0  0  0  0  0  0  0  0
    3.2808  -10.5128   17.4241 C   0  0  0  0  0  0  0  0  0  0  0  0
    4.0659   -8.8601   18.3389 C   0  0  0  0  0  0  0  0  0  0  0  0
    4.5775   -7.1834   18.1653 C   0  0  0  0  0  0  0  0  0  0  0  0
    5.5494   -6.6379   19.0512 C   0  0  0  0  0  0  0  0  0  0  0  0
    5.8467   -7.6038   19.8970 N   0  0  0  0  0  0  0  0  0  0  0  0
    5.1898   -8.8594   19.1705 N   0  0  0  0  0  0  0  0  0  0  0  0
    2.3683  -15.5955   16.1635 N   0  0  0  0  0  0  0  0  0  0  0  0
    2.4063  -17.5221   15.4880 C   0  0  0  0  0  0  0  0  0  0  0  0
    1.0093  -18.7170   14.2963 C   0  0  0  0  0  0  0  0  0  0  0  0
    1.7124  -18.9721   12.9798 O   0  0  0  0  0  0  0  0  0  0  0  0
   -0.8469  -19.7384   13.7047 C   0  0  0  0  0  0  0  0  0  0  0  0
   -2.8030  -20.2441   13.0063 N   0  0  0  0  0  0  0  0  0  0  0  0
   -3.4503  -21.7377   12.2174 C   0  0  0  0  0  0  0  0  0  0  0  0
   -2.8871  -22.8305   12.0080 O   0  0  0  0  0  0  0  0  0  0  0  0
   -4.8304  -21.7290   11.5661 C   0  0  0  0  0  0  0  0  0  0  0  0
   -4.7062  -22.2922   10.2644 N   0  0  0  0  0  0  0  0  0  0  0  0
   -5.1611  -23.5675   10.1770 N   0  0  0  0  0  0  0  0  0  0  0  0
   -5.9130  -23.6841   11.2678 C   0  0  0  0  0  0  0  0  0  0  0  0
   -6.0044  -22.4127   11.8817 C   0  0  0  0  0  0  0  0  0  0  0  0
   -7.3559  -21.8360   12.7190 Cl  0  0  0  0  0  0  0  0  0  0  0  0
    4.0685  -12.6977   18.6987 H   0  0  0  0  0  0  0  0  0  0  0  0
    4.0981  -12.2395   17.0689 H   0  0  0  0  0  0  0  0  0  0  0  0
    2.3369  -10.0659   17.6740 H   0  0  0  0  0  0  0  0  0  0  0  0
    3.5289  -10.4441   16.3819 H   0  0  0  0  0  0  0  0  0  0  0  0
    4.4372   -6.5863   17.2688 H   0  0  0  0  0  0  0  0  0  0  0  0
    5.9866   -5.6539   19.1095 H   0  0  0  0  0  0  0  0  0  0  0  0
    5.7983   -9.6686   19.2272 H   0  0  0  0  0  0  0  0  0  0  0  0
    1.8458  -14.9412   15.6599 H   0  0  0  0  0  0  0  0  0  0  0  0
    3.3329  -17.5149   14.8955 H   0  0  0  0  0  0  0  0  0  0  0  0
    2.6656  -18.0993   16.3958 H   0  0  0  0  0  0  0  0  0  0  0  0
    1.5290  -19.5853   14.7489 H   0  0  0  0  0  0  0  0  0  0  0  0
    2.1969  -18.1453   12.7941 H   0  0  0  0  0  0  0  0  0  0  0  0
   -1.3100  -18.8928   14.2577 H   0  0  0  0  0  0  0  0  0  0  0  0
   -0.3615  -19.6505   12.7357 H   0  0  0  0  0  0  0  0  0  0  0  0
   -3.5745  -19.5287   13.1014 H   0  0  0  0  0  0  0  0  0  0  0  0
   -3.9957  -22.0422    9.5875 H   0  0  0  0  0  0  0  0  0  0  0  0
   -6.5086  -24.5757   11.4052 H   0  0  0  0  0  0  0  0  0  0  0  0
  1  2  2  0
  2  3  1  0
  3  4  1  0
  4  5  1  0
  5  6  2  0
  6  7  1  0
  7  8  2  0
  8  9  1  0
  2 10  1  0
 10 11  1  0
 11 12  1  0
 12 13  1  0
 12 14  1  0
 14 15  1  0
 15 16  1  0
 16 17  2  0
 16 18  1  0
 18 19  1  0
 19 20  1  0
 20 21  2  0
 21 22  1  0
 22 23  1  0
  9  5  1  0
 22 18  2  0
  3 24  1  0
  3 25  1  0
  4 26  1  0
  4 27  1  0
  6 28  1  0
  7 29  1  0
  9 30  1  0
 10 31  1  0
 11 32  1  0
 11 33  1  0
 12 34  1  0
 13 35  1  0
 14 36  1  0
 14 37  1  0
 15 38  1  0
 19 39  1  0
 21 40  1  0
M  END
>  <Energy>  (612) 
1233.1381887353859

>  <compound_id>  (612) 
13521

>  <target_id>  (612) 
1

>  <reference_id>  (612) 
112

>  <inspiration_ids>  (612) 
[112, 81]

>  <energy_score>  (612) 
1218.0984204280169

>  <distance_score>  (612) 
9.183022676206301

>  <path>  (612) 
/opt/xchem-fragalysis-2/maxwin/BulkDock/SCRATCH/511016/C13521-P112/C13521-P112.minimised.mol

>  <scratch_subdir>  (612) 
/opt/xchem-fragalysis-2/maxwin/BulkDock/SCRATCH/511016/C13521-P112

>  <fragmenstein_runtime>  (612) 
10.667673349380493

>  <fragmenstein_outcome>  (612) 
too moved

>  <fragmenstein_mode>  (612) 
expansion

>  <fragmenstein_error>  (612) 


$$$$
C13521-P81
     RDKit          3D

 40 41  0  0  0  0  0  0  0  0999 V2000
    4.5009  -10.4348   13.6734 O   0  0  0  0  0  0  0  0  0  0  0  0
    5.7188  -10.4748   13.7681 C   0  0  0  0  0  0  0  0  0  0  0  0
    6.5302   -8.4106   14.0137 C   0  0  0  0  0  0  0  0  0  0  0  0
    7.8460   -7.0247   15.0394 C   0  0  0  0  0  0  0  0  0  0  0  0
    8.8048   -5.1971   14.5311 C   0  0  0  0  0  0  0  0  0  0  0  0
    8.6404   -3.5443   14.8803 C   0  0  0  0  0  0  0  0  0  0  0  0
    9.8374   -2.7791   14.7908 C   0  0  0  0  0  0  0  0  0  0  0  0
   10.8887   -3.5281   14.5868 N   0  0  0  0  0  0  0  0  0  0  0  0
   10.4501   -4.7878   14.6599 N   0  0  0  0  0  0  0  0  0  0  0  0
    6.6431  -12.1351   13.5269 N   0  0  0  0  0  0  0  0  0  0  0  0
    6.1069  -13.8101   13.0345 C   0  0  0  0  0  0  0  0  0  0  0  0
    5.2484  -15.6102   13.6860 C   0  0  0  0  0  0  0  0  0  0  0  0
    5.3829  -15.9563   15.1812 O   0  0  0  0  0  0  0  0  0  0  0  0
    5.3659  -17.4859   13.7749 C   0  0  0  0  0  0  0  0  0  0  0  0
    4.3392  -18.0915   12.9693 N   0  0  0  0  0  0  0  0  0  0  0  0
    4.3376  -19.2911   12.2019 C   0  0  0  0  0  0  0  0  0  0  0  0
    5.2143  -20.0644   11.9647 O   0  0  0  0  0  0  0  0  0  0  0  0
    3.0359  -19.4509   11.5843 C   0  0  0  0  0  0  0  0  0  0  0  0
    1.8246  -19.0878   12.1369 N   0  0  0  0  0  0  0  0  0  0  0  0
    0.8708  -18.9243   11.2174 N   0  0  0  0  0  0  0  0  0  0  0  0
    1.3695  -19.5435   10.1456 C   0  0  0  0  0  0  0  0  0  0  0  0
    2.6954  -19.9487   10.3419 C   0  0  0  0  0  0  0  0  0  0  0  0
    3.6757  -20.6720    9.1626 Cl  0  0  0  0  0  0  0  0  0  0  0  0
    6.9012   -8.0414   13.0159 H   0  0  0  0  0  0  0  0  0  0  0  0
    5.6173   -7.7998   13.8963 H   0  0  0  0  0  0  0  0  0  0  0  0
    8.8131   -7.4683   15.2597 H   0  0  0  0  0  0  0  0  0  0  0  0
    7.1856   -6.6427   15.8421 H   0  0  0  0  0  0  0  0  0  0  0  0
    7.6829   -3.0591   15.0903 H   0  0  0  0  0  0  0  0  0  0  0  0
    9.9486   -1.7053   14.8660 H   0  0  0  0  0  0  0  0  0  0  0  0
   10.8728   -5.3740   15.3607 H   0  0  0  0  0  0  0  0  0  0  0  0
    7.5979  -11.9990   13.7280 H   0  0  0  0  0  0  0  0  0  0  0  0
    6.9981  -13.9827   12.4580 H   0  0  0  0  0  0  0  0  0  0  0  0
    5.7186  -13.8551   11.9713 H   0  0  0  0  0  0  0  0  0  0  0  0
    4.4712  -15.8797   13.0167 H   0  0  0  0  0  0  0  0  0  0  0  0
    6.3517  -16.1272   15.2595 H   0  0  0  0  0  0  0  0  0  0  0  0
    5.0562  -17.8560   14.7577 H   0  0  0  0  0  0  0  0  0  0  0  0
    6.3556  -17.9326   13.6130 H   0  0  0  0  0  0  0  0  0  0  0  0
    3.3900  -17.7327   13.0249 H   0  0  0  0  0  0  0  0  0  0  0  0
    1.6274  -18.7965   13.0945 H   0  0  0  0  0  0  0  0  0  0  0  0
    0.7666  -19.6336    9.2523 H   0  0  0  0  0  0  0  0  0  0  0  0
  1  2  2  0
  2  3  1  0
  3  4  1  0
  4  5  1  0
  5  6  2  0
  6  7  1  0
  7  8  2  0
  8  9  1  0
  2 10  1  0
 10 11  1  0
 11 12  1  0
 12 13  1  0
 12 14  1  0
 14 15  1  0
 15 16  1  0
 16 17  2  0
 16 18  1  0
 18 19  1  0
 19 20  1  0
 20 21  2  0
 21 22  1  0
 22 23  1  0
  9  5  1  0
 22 18  2  0
  3 24  1  0
  3 25  1  0
  4 26  1  0
  4 27  1  0
  6 28  1  0
  7 29  1  0
  9 30  1  0
 10 31  1  0
 11 32  1  0
 11 33  1  0
 12 34  1  0
 13 35  1  0
 14 36  1  0
 14 37  1  0
 15 38  1  0
 19 39  1  0
 21 40  1  0
M  END
>  <Energy>  (613) 
875.92869012421761

>  <compound_id>  (613) 
13521

>  <target_id>  (613) 
1

>  <reference_id>  (613) 
81

>  <inspiration_ids>  (613) 
[112, 81]

>  <energy_score>  (613) 
860.8889218168617

>  <distance_score>  (613) 
12.315298321436625

>  <path>  (613) 
/opt/xchem-fragalysis-2/maxwin/BulkDock/SCRATCH/511016/C13521-P81/C13521-P81.minimised.mol

>  <scratch_subdir>  (613) 
/opt/xchem-fragalysis-2/maxwin/BulkDock/SCRATCH/511016/C13521-P81

>  <fragmenstein_runtime>  (613) 
36.34473657608032

>  <fragmenstein_outcome>  (613) 
too moved

>  <fragmenstein_mode>  (613) 
expansion

>  <fragmenstein_error>  (613) 


$$$$
C13522-P112
     RDKit          3D

 29 30  0  0  0  0  0  0  0  0999 V2000
    1.4565  -13.6568   12.1264 O   0  0  0  0  0  0  0  0  0  0  0  0
    0.8877  -12.6011   11.8765 C   0  0  0  0  0  0  0  0  0  0  0  0
   -0.4634  -12.8229   11.7841 C   0  0  0  0  0  0  0  0  0  0  0  0
   -0.7984  -14.5529   11.2929 C   0  0  0  0  0  0  0  0  0  0  0  0
    0.0309  -15.6989   11.1087 C   0  0  0  0  0  0  0  0  0  0  0  0
   -0.7092  -16.7551   10.5088 C   0  0  0  0  0  0  0  0  0  0  0  0
   -1.9781  -16.3902   10.3216 N   0  0  0  0  0  0  0  0  0  0  0  0
   -2.0290  -15.1374   10.8779 N   0  0  0  0  0  0  0  0  0  0  0  0
    1.5643  -10.8815   11.7593 N   0  0  0  0  0  0  0  0  0  0  0  0
    3.3952  -10.1508   12.1285 C   0  0  0  0  0  0  0  0  0  0  0  0
    5.1382  -10.2156   13.4639 C   0  0  0  0  0  0  0  0  0  0  0  0
    6.9751   -9.3770   13.8841 N   0  0  0  0  0  0  0  0  0  0  0  0
    8.4811   -9.3769   15.2495 C   0  0  0  0  0  0  0  0  0  0  0  0
    9.4612   -7.6643   15.1566 C   0  0  0  0  0  0  0  0  0  0  0  0
   11.0632   -6.0612   15.8311 Cl  0  0  0  0  0  0  0  0  0  0  0  0
    7.8646   -6.7755   14.4834 C   0  0  0  0  0  0  0  0  0  0  0  0
    6.6952   -7.5920   14.1056 N   0  0  0  0  0  0  0  0  0  0  0  0
   -0.6343  -11.8763   11.3167 H   0  0  0  0  0  0  0  0  0  0  0  0
   -0.6021  -12.8266   12.8690 H   0  0  0  0  0  0  0  0  0  0  0  0
    1.0859  -15.7648   11.2869 H   0  0  0  0  0  0  0  0  0  0  0  0
   -0.3647  -17.7322   10.1958 H   0  0  0  0  0  0  0  0  0  0  0  0
   -2.9471  -14.8794   11.2073 H   0  0  0  0  0  0  0  0  0  0  0  0
    0.8221  -10.2154   11.6168 H   0  0  0  0  0  0  0  0  0  0  0  0
    3.7097  -10.5963   11.0991 H   0  0  0  0  0  0  0  0  0  0  0  0
    3.3043   -9.1389   11.6749 H   0  0  0  0  0  0  0  0  0  0  0  0
    5.6493  -11.1587   13.2563 H   0  0  0  0  0  0  0  0  0  0  0  0
    4.7877  -10.3498   14.4645 H   0  0  0  0  0  0  0  0  0  0  0  0
    8.9600  -10.3438   15.1716 H   0  0  0  0  0  0  0  0  0  0  0  0
    7.7884   -5.7077   14.5790 H   0  0  0  0  0  0  0  0  0  0  0  0
  1  2  2  0
  2  3  1  0
  3  4  1  0
  4  5  2  0
  5  6  1  0
  6  7  2  0
  7  8  1  0
  2  9  1  0
  9 10  1  0
 10 11  1  0
 11 12  1  0
 12 13  1  0
 13 14  2  0
 14 15  1  0
 14 16  1  0
 16 17  2  0
  8  4  1  0
 17 12  1  0
  3 18  1  0
  3 19  1  0
  5 20  1  0
  6 21  1  0
  8 22  1  0
  9 23  1  0
 10 24  1  0
 10 25  1  0
 11 26  1  0
 11 27  1  0
 13 28  1  0
 16 29  1  0
M  END
>  <Energy>  (614) 
1066.6973903764895

>  <compound_id>  (614) 
13522

>  <target_id>  (614) 
1

>  <reference_id>  (614) 
112

>  <inspiration_ids>  (614) 
[112, 81]

>  <energy_score>  (614) 
1015.4151477525002

>  <distance_score>  (614) 
12.628211133538077

>  <path>  (614) 
/opt/xchem-fragalysis-2/maxwin/BulkDock/SCRATCH/511016/C13522-P112/C13522-P112.minimised.mol

>  <scratch_subdir>  (614) 
/opt/xchem-fragalysis-2/maxwin/BulkDock/SCRATCH/511016/C13522-P112

>  <fragmenstein_runtime>  (614) 
22.529244899749756

>  <fragmenstein_outcome>  (614) 
too moved

>  <fragmenstein_mode>  (614) 
expansion

>  <fragmenstein_error>  (614) 


$$$$
C13522-P81
     RDKit          3D

 29 30  0  0  0  0  0  0  0  0999 V2000
   -1.3677  -14.3640   10.6832 O   0  0  0  0  0  0  0  0  0  0  0  0
   -0.3189  -14.4864   11.2312 C   0  0  0  0  0  0  0  0  0  0  0  0
    0.2145  -15.9798   11.3338 C   0  0  0  0  0  0  0  0  0  0  0  0
   -0.6334  -17.1349   10.6837 C   0  0  0  0  0  0  0  0  0  0  0  0
   -0.5167  -18.5170   10.7904 C   0  0  0  0  0  0  0  0  0  0  0  0
   -1.7016  -19.0498   10.2339 C   0  0  0  0  0  0  0  0  0  0  0  0
   -2.4988  -18.0948    9.7541 N   0  0  0  0  0  0  0  0  0  0  0  0
   -1.8208  -16.9531    9.9914 N   0  0  0  0  0  0  0  0  0  0  0  0
    0.6221  -13.4793   11.7322 N   0  0  0  0  0  0  0  0  0  0  0  0
    0.6259  -11.6253   11.5953 C   0  0  0  0  0  0  0  0  0  0  0  0
    2.1156  -10.4258   10.9712 C   0  0  0  0  0  0  0  0  0  0  0  0
    3.1928   -8.9419   11.2460 N   0  0  0  0  0  0  0  0  0  0  0  0
    2.8028   -7.3662   11.4992 C   0  0  0  0  0  0  0  0  0  0  0  0
    3.9782   -6.8258   11.9903 C   0  0  0  0  0  0  0  0  0  0  0  0
    4.5457   -7.6957   13.4811 Cl  0  0  0  0  0  0  0  0  0  0  0  0
    4.7995   -6.9685   10.8335 C   0  0  0  0  0  0  0  0  0  0  0  0
    4.3641   -8.2356   10.2199 N   0  0  0  0  0  0  0  0  0  0  0  0
    0.6222  -16.2272   12.2945 H   0  0  0  0  0  0  0  0  0  0  0  0
    1.0875  -15.9838   10.6647 H   0  0  0  0  0  0  0  0  0  0  0  0
    0.2793  -19.0620   11.2789 H   0  0  0  0  0  0  0  0  0  0  0  0
   -2.0171  -20.0843   10.1690 H   0  0  0  0  0  0  0  0  0  0  0  0
   -2.2767  -16.0627    9.7970 H   0  0  0  0  0  0  0  0  0  0  0  0
    1.3515  -13.9327   12.2095 H   0  0  0  0  0  0  0  0  0  0  0  0
   -0.0638  -11.2759   12.3306 H   0  0  0  0  0  0  0  0  0  0  0  0
   -0.0753  -11.5142   10.8062 H   0  0  0  0  0  0  0  0  0  0  0  0
    1.4590   -9.8173   10.3528 H   0  0  0  0  0  0  0  0  0  0  0  0
    2.8661  -11.0015   10.4206 H   0  0  0  0  0  0  0  0  0  0  0  0
    1.7386   -7.2183   11.4415 H   0  0  0  0  0  0  0  0  0  0  0  0
    5.7543   -6.5567   10.5149 H   0  0  0  0  0  0  0  0  0  0  0  0
  1  2  2  0
  2  3  1  0
  3  4  1  0
  4  5  2  0
  5  6  1  0
  6  7  2  0
  7  8  1  0
  2  9  1  0
  9 10  1  0
 10 11  1  0
 11 12  1  0
 12 13  1  0
 13 14  2  0
 14 15  1  0
 14 16  1  0
 16 17  2  0
  8  4  1  0
 17 12  1  0
  3 18  1  0
  3 19  1  0
  5 20  1  0
  6 21  1  0
  8 22  1  0
  9 23  1  0
 10 24  1  0
 10 25  1  0
 11 26  1  0
 11 27  1  0
 13 28  1  0
 16 29  1  0
M  END
>  <Energy>  (615) 
374.17605313157458

>  <compound_id>  (615) 
13522

>  <target_id>  (615) 
1

>  <reference_id>  (615) 
81

>  <inspiration_ids>  (615) 
[112, 81]

>  <energy_score>  (615) 
322.89381050758203

>  <distance_score>  (615) 
12.762946686232752

>  <path>  (615) 
/opt/xchem-fragalysis-2/maxwin/BulkDock/SCRATCH/511016/C13522-P81/C13522-P81.minimised.mol

>  <scratch_subdir>  (615) 
/opt/xchem-fragalysis-2/maxwin/BulkDock/SCRATCH/511016/C13522-P81

>  <fragmenstein_runtime>  (615) 
12.414748668670654

>  <fragmenstein_outcome>  (615) 
too moved

>  <fragmenstein_mode>  (615) 
expansion

>  <fragmenstein_error>  (615) 


$$$$
C13523-P112
     RDKit          3D

 27 28  0  0  0  0  0  0  0  0999 V2000
    4.3145   -4.3887   12.7215 Cl  0  0  0  0  0  0  0  0  0  0  0  0
    4.5495   -5.7563   13.6990 C   0  0  0  0  0  0  0  0  0  0  0  0
    3.8806   -5.8906   14.8897 C   0  0  0  0  0  0  0  0  0  0  0  0
    3.4522   -7.1665   15.0580 N   0  0  0  0  0  0  0  0  0  0  0  0
    4.1001   -8.1308   13.8424 N   0  0  0  0  0  0  0  0  0  0  0  0
    3.6828  -10.0243   13.6616 C   0  0  0  0  0  0  0  0  0  0  0  0
    1.8737  -10.9678   13.0352 C   0  0  0  0  0  0  0  0  0  0  0  0
    0.8802  -12.6651   13.1532 N   0  0  0  0  0  0  0  0  0  0  0  0
   -0.5428  -13.2445   13.1422 C   0  0  0  0  0  0  0  0  0  0  0  0
   -1.8419  -14.1525   14.3260 C   0  0  0  0  0  0  0  0  0  0  0  0
   -1.9957  -14.4261   15.7166 C   0  0  0  0  0  0  0  0  0  0  0  0
   -3.1101  -15.2750   15.9028 C   0  0  0  0  0  0  0  0  0  0  0  0
   -3.6888  -15.5922   14.7564 N   0  0  0  0  0  0  0  0  0  0  0  0
   -2.9144  -15.0080   13.8351 N   0  0  0  0  0  0  0  0  0  0  0  0
    5.1020   -7.0040   13.4774 C   0  0  0  0  0  0  0  0  0  0  0  0
    3.4394   -5.1332   15.5236 H   0  0  0  0  0  0  0  0  0  0  0  0
    3.8024  -10.3912   14.6790 H   0  0  0  0  0  0  0  0  0  0  0  0
    4.6661  -10.3234   13.2930 H   0  0  0  0  0  0  0  0  0  0  0  0
    1.5130  -10.7620   11.9947 H   0  0  0  0  0  0  0  0  0  0  0  0
    1.6047  -11.4623   13.9504 H   0  0  0  0  0  0  0  0  0  0  0  0
    1.4826  -13.4762   13.0038 H   0  0  0  0  0  0  0  0  0  0  0  0
   -0.5459  -13.8806   12.2413 H   0  0  0  0  0  0  0  0  0  0  0  0
   -0.8541  -12.2190   13.0222 H   0  0  0  0  0  0  0  0  0  0  0  0
   -1.3430  -14.1050   16.5186 H   0  0  0  0  0  0  0  0  0  0  0  0
   -3.5017  -15.6743   16.8299 H   0  0  0  0  0  0  0  0  0  0  0  0
   -3.1598  -15.1900   12.8657 H   0  0  0  0  0  0  0  0  0  0  0  0
    6.1246   -7.1939   13.1878 H   0  0  0  0  0  0  0  0  0  0  0  0
  1  2  1  0
  2  3  1  0
  3  4  2  0
  4  5  1  0
  5  6  1  0
  6  7  1  0
  7  8  1  0
  8  9  1  0
  9 10  1  0
 10 11  2  0
 11 12  1  0
 12 13  2  0
 13 14  1  0
  5 15  1  0
 15  2  2  0
 14 10  1  0
  3 16  1  0
  6 17  1  0
  6 18  1  0
  7 19  1  0
  7 20  1  0
  8 21  1  0
  9 22  1  0
  9 23  1  0
 11 24  1  0
 12 25  1  0
 14 26  1  0
 15 27  1  0
M  END
>  <Energy>  (616) 
548.45234787927325

>  <compound_id>  (616) 
13523

>  <target_id>  (616) 
1

>  <reference_id>  (616) 
112

>  <inspiration_ids>  (616) 
[112, 81]

>  <energy_score>  (616) 
514.7226861933677

>  <distance_score>  (616) 
12.773235913628083

>  <path>  (616) 
/opt/xchem-fragalysis-2/maxwin/BulkDock/SCRATCH/511016/C13523-P112/C13523-P112.minimised.mol

>  <scratch_subdir>  (616) 
/opt/xchem-fragalysis-2/maxwin/BulkDock/SCRATCH/511016/C13523-P112

>  <fragmenstein_runtime>  (616) 
5.860286474227905

>  <fragmenstein_outcome>  (616) 
too moved

>  <fragmenstein_mode>  (616) 
expansion

>  <fragmenstein_error>  (616) 


$$$$
C13523-P81
     RDKit          3D

 27 28  0  0  0  0  0  0  0  0999 V2000
    3.9540  -10.4638   13.2631 Cl  0  0  0  0  0  0  0  0  0  0  0  0
    2.8607  -10.7575   11.3494 C   0  0  0  0  0  0  0  0  0  0  0  0
    1.5236  -10.3374   11.1414 C   0  0  0  0  0  0  0  0  0  0  0  0
    0.5538  -11.1970   11.4971 N   0  0  0  0  0  0  0  0  0  0  0  0
    1.0620  -12.3867   11.1505 N   0  0  0  0  0  0  0  0  0  0  0  0
    0.3230  -13.7211   11.6418 C   0  0  0  0  0  0  0  0  0  0  0  0
    0.2685  -15.4018   11.2310 C   0  0  0  0  0  0  0  0  0  0  0  0
   -1.1114  -16.0397   10.9339 N   0  0  0  0  0  0  0  0  0  0  0  0
   -1.1786  -17.5233   11.0675 C   0  0  0  0  0  0  0  0  0  0  0  0
   -2.5879  -18.0482   11.2283 C   0  0  0  0  0  0  0  0  0  0  0  0
   -3.0847  -19.1889   11.8357 C   0  0  0  0  0  0  0  0  0  0  0  0
   -4.4837  -19.1166   11.6826 C   0  0  0  0  0  0  0  0  0  0  0  0
   -4.8669  -18.0323   11.0024 N   0  0  0  0  0  0  0  0  0  0  0  0
   -3.7001  -17.4032   10.7517 N   0  0  0  0  0  0  0  0  0  0  0  0
    2.5773  -12.0157   10.6952 C   0  0  0  0  0  0  0  0  0  0  0  0
    1.2141   -9.3446   10.8856 H   0  0  0  0  0  0  0  0  0  0  0  0
    0.2787  -13.6189   12.7294 H   0  0  0  0  0  0  0  0  0  0  0  0
   -0.6288  -13.4882   11.2046 H   0  0  0  0  0  0  0  0  0  0  0  0
    0.9375  -15.6627   10.4069 H   0  0  0  0  0  0  0  0  0  0  0  0
    0.6367  -15.9132   12.1180 H   0  0  0  0  0  0  0  0  0  0  0  0
   -1.6977  -15.7175   11.7204 H   0  0  0  0  0  0  0  0  0  0  0  0
   -0.7250  -17.9768   10.1797 H   0  0  0  0  0  0  0  0  0  0  0  0
   -0.5992  -17.8397   11.9428 H   0  0  0  0  0  0  0  0  0  0  0  0
   -2.5251  -19.9661   12.3370 H   0  0  0  0  0  0  0  0  0  0  0  0
   -5.2297  -19.8091   12.0432 H   0  0  0  0  0  0  0  0  0  0  0  0
   -3.7161  -16.5129   10.2671 H   0  0  0  0  0  0  0  0  0  0  0  0
    3.1644  -12.8751   10.4103 H   0  0  0  0  0  0  0  0  0  0  0  0
  1  2  1  0
  2  3  1  0
  3  4  2  0
  4  5  1  0
  5  6  1  0
  6  7  1  0
  7  8  1  0
  8  9  1  0
  9 10  1  0
 10 11  2  0
 11 12  1  0
 12 13  2  0
 13 14  1  0
  5 15  1  0
 15  2  2  0
 14 10  1  0
  3 16  1  0
  6 17  1  0
  6 18  1  0
  7 19  1  0
  7 20  1  0
  8 21  1  0
  9 22  1  0
  9 23  1  0
 11 24  1  0
 12 25  1  0
 14 26  1  0
 15 27  1  0
M  END
>  <Energy>  (617) 
180.06433841080477

>  <compound_id>  (617) 
13523

>  <target_id>  (617) 
1

>  <reference_id>  (617) 
81

>  <inspiration_ids>  (617) 
[112, 81]

>  <energy_score>  (617) 
146.33467672491145

>  <distance_score>  (617) 
12.921579654134808

>  <path>  (617) 
/opt/xchem-fragalysis-2/maxwin/BulkDock/SCRATCH/511016/C13523-P81/C13523-P81.minimised.mol

>  <scratch_subdir>  (617) 
/opt/xchem-fragalysis-2/maxwin/BulkDock/SCRATCH/511016/C13523-P81

>  <fragmenstein_runtime>  (617) 
8.030707597732544

>  <fragmenstein_outcome>  (617) 
too moved

>  <fragmenstein_mode>  (617) 
expansion

>  <fragmenstein_error>  (617) 


$$$$
C13524-P112
     RDKit          3D

 45 46  0  0  0  0  0  0  0  0999 V2000
   -0.7343  -12.0788   18.0182 C   0  0  0  0  0  0  0  0  0  0  0  0
   -1.2951  -13.0882   17.3557 N   0  0  0  0  0  0  0  0  0  0  0  0
    0.7100  -13.2844   16.7194 C   0  0  0  0  0  0  0  0  0  0  0  0
    2.5704  -11.8393   16.7052 C   0  0  0  0  0  0  0  0  0  0  0  0
    3.8236  -11.5424   15.3847 C   0  0  0  0  0  0  0  0  0  0  0  0
    3.5032  -13.0216   17.9289 C   0  0  0  0  0  0  0  0  0  0  0  0
    3.3766  -10.0178   16.5470 N   0  0  0  0  0  0  0  0  0  0  0  0
    2.6206   -8.2198   16.4253 C   0  0  0  0  0  0  0  0  0  0  0  0
    1.3959   -7.9343   16.5691 O   0  0  0  0  0  0  0  0  0  0  0  0
    3.6686   -6.5347   15.7788 C   0  0  0  0  0  0  0  0  0  0  0  0
    3.2191   -4.7854   15.2121 N   0  0  0  0  0  0  0  0  0  0  0  0
    2.5174   -4.2455   14.1163 C   0  0  0  0  0  0  0  0  0  0  0  0
    2.6702   -2.8732   14.1272 C   0  0  0  0  0  0  0  0  0  0  0  0
    2.0170   -1.7512   13.0414 Cl  0  0  0  0  0  0  0  0  0  0  0  0
    3.4530   -2.5830   15.2401 C   0  0  0  0  0  0  0  0  0  0  0  0
    3.8156   -3.6780   15.9090 N   0  0  0  0  0  0  0  0  0  0  0  0
   -1.9168  -14.4189   17.8526 C   0  0  0  0  0  0  0  0  0  0  0  0
   -1.8542  -14.7703   19.0072 O   0  0  0  0  0  0  0  0  0  0  0  0
   -3.1501  -15.6527   16.8522 C   0  0  0  0  0  0  0  0  0  0  0  0
   -3.7978  -16.9994   17.4519 C   0  0  0  0  0  0  0  0  0  0  0  0
   -3.4047  -17.9542   18.3707 C   0  0  0  0  0  0  0  0  0  0  0  0
   -4.4165  -18.9364   18.3529 C   0  0  0  0  0  0  0  0  0  0  0  0
   -5.3961  -18.6334   17.5038 N   0  0  0  0  0  0  0  0  0  0  0  0
   -4.9915  -17.4774   16.9485 N   0  0  0  0  0  0  0  0  0  0  0  0
   -0.6870  -11.9058   19.1114 H   0  0  0  0  0  0  0  0  0  0  0  0
   -1.1591  -11.0937   17.7563 H   0  0  0  0  0  0  0  0  0  0  0  0
   -1.7999  -12.0533   18.4198 H   0  0  0  0  0  0  0  0  0  0  0  0
    0.9350  -14.0832   16.0566 H   0  0  0  0  0  0  0  0  0  0  0  0
    0.9515  -13.9580   17.5588 H   0  0  0  0  0  0  0  0  0  0  0  0
    3.8574  -10.6289   14.7691 H   0  0  0  0  0  0  0  0  0  0  0  0
    4.4317  -11.7456   16.1787 H   0  0  0  0  0  0  0  0  0  0  0  0
    4.5277  -12.0401   14.7119 H   0  0  0  0  0  0  0  0  0  0  0  0
    4.0812  -13.9314   17.6488 H   0  0  0  0  0  0  0  0  0  0  0  0
    4.0611  -12.6579   18.7788 H   0  0  0  0  0  0  0  0  0  0  0  0
    2.7625  -13.8431   18.0785 H   0  0  0  0  0  0  0  0  0  0  0  0
    4.3290   -9.9734   16.4855 H   0  0  0  0  0  0  0  0  0  0  0  0
    3.8606   -6.8060   14.7292 H   0  0  0  0  0  0  0  0  0  0  0  0
    2.6690   -6.2236   15.4877 H   0  0  0  0  0  0  0  0  0  0  0  0
    1.9220   -4.8004   13.4216 H   0  0  0  0  0  0  0  0  0  0  0  0
    3.7864   -1.6174   15.5946 H   0  0  0  0  0  0  0  0  0  0  0  0
   -3.8822  -14.8917   16.9387 H   0  0  0  0  0  0  0  0  0  0  0  0
   -3.3272  -15.7501   15.7622 H   0  0  0  0  0  0  0  0  0  0  0  0
   -2.5034  -17.9438   18.9671 H   0  0  0  0  0  0  0  0  0  0  0  0
   -4.4774  -19.8514   18.9273 H   0  0  0  0  0  0  0  0  0  0  0  0
   -5.5748  -17.0589   16.2315 H   0  0  0  0  0  0  0  0  0  0  0  0
  1  2  1  0
  2  3  1  0
  3  4  1  0
  4  5  1  0
  4  6  1  0
  4  7  1  0
  7  8  1  0
  8  9  2  0
  8 10  1  0
 10 11  1  0
 11 12  1  0
 12 13  2  0
 13 14  1  0
 13 15  1  0
 15 16  2  0
  2 17  1  0
 17 18  2  0
 17 19  1  0
 19 20  1  0
 20 21  2  0
 21 22  1  0
 22 23  2  0
 23 24  1  0
 16 11  1  0
 24 20  1  0
  1 25  1  0
  1 26  1  0
  1 27  1  0
  3 28  1  0
  3 29  1  0
  5 30  1  0
  5 31  1  0
  5 32  1  0
  6 33  1  0
  6 34  1  0
  6 35  1  0
  7 36  1  0
 10 37  1  0
 10 38  1  0
 12 39  1  0
 15 40  1  0
 19 41  1  0
 19 42  1  0
 21 43  1  0
 22 44  1  0
 24 45  1  0
M  END
>  <Energy>  (618) 
1279.0255688512666

>  <compound_id>  (618) 
13524

>  <target_id>  (618) 
1

>  <reference_id>  (618) 
112

>  <inspiration_ids>  (618) 
[112, 81]

>  <energy_score>  (618) 
1194.5770267889282

>  <distance_score>  (618) 
10.884543673125318

>  <path>  (618) 
/opt/xchem-fragalysis-2/maxwin/BulkDock/SCRATCH/511016/C13524-P112/C13524-P112.minimised.mol

>  <scratch_subdir>  (618) 
/opt/xchem-fragalysis-2/maxwin/BulkDock/SCRATCH/511016/C13524-P112

>  <fragmenstein_runtime>  (618) 
33.58928155899048

>  <fragmenstein_outcome>  (618) 
too moved

>  <fragmenstein_mode>  (618) 
expansion

>  <fragmenstein_error>  (618) 


$$$$
C13524-P81
     RDKit          3D

 45 46  0  0  0  0  0  0  0  0999 V2000
   -4.8844   -5.4594   18.5432 C   0  0  0  0  0  0  0  0  0  0  0  0
   -5.5246   -6.6634   17.9794 N   0  0  0  0  0  0  0  0  0  0  0  0
   -4.1288   -7.4501   18.8220 C   0  0  0  0  0  0  0  0  0  0  0  0
   -2.9276   -8.8150   18.6416 C   0  0  0  0  0  0  0  0  0  0  0  0
   -3.3856   -9.7591   17.5389 C   0  0  0  0  0  0  0  0  0  0  0  0
   -2.7739   -9.4953   20.0237 C   0  0  0  0  0  0  0  0  0  0  0  0
   -1.3915   -8.6549   18.1253 N   0  0  0  0  0  0  0  0  0  0  0  0
   -0.0403   -8.4315   18.9321 C   0  0  0  0  0  0  0  0  0  0  0  0
    0.1621   -8.3744   20.1384 O   0  0  0  0  0  0  0  0  0  0  0  0
    1.3244   -8.3868   17.8268 C   0  0  0  0  0  0  0  0  0  0  0  0
    2.9323   -8.0684   17.9885 N   0  0  0  0  0  0  0  0  0  0  0  0
    4.3767   -6.9860   17.5016 C   0  0  0  0  0  0  0  0  0  0  0  0
    5.2615   -7.2986   18.3681 C   0  0  0  0  0  0  0  0  0  0  0  0
    6.5489   -6.2925   18.3814 Cl  0  0  0  0  0  0  0  0  0  0  0  0
    4.7501   -8.7755   18.5299 C   0  0  0  0  0  0  0  0  0  0  0  0
    3.5204   -9.1561   18.1625 N   0  0  0  0  0  0  0  0  0  0  0  0
   -6.8675   -7.3514   18.3498 C   0  0  0  0  0  0  0  0  0  0  0  0
   -7.6513   -7.1097   19.2473 O   0  0  0  0  0  0  0  0  0  0  0  0
   -7.3998   -8.5064   17.3237 C   0  0  0  0  0  0  0  0  0  0  0  0
   -8.5447   -9.5094   17.6102 C   0  0  0  0  0  0  0  0  0  0  0  0
   -9.1100  -10.4463   16.7466 C   0  0  0  0  0  0  0  0  0  0  0  0
   -9.8666  -11.3156   17.5529 C   0  0  0  0  0  0  0  0  0  0  0  0
   -9.8426  -10.9407   18.8319 N   0  0  0  0  0  0  0  0  0  0  0  0
   -9.0896   -9.8128   18.8312 N   0  0  0  0  0  0  0  0  0  0  0  0
   -5.6297   -4.6733   18.3534 H   0  0  0  0  0  0  0  0  0  0  0  0
   -4.0141   -5.1139   17.9829 H   0  0  0  0  0  0  0  0  0  0  0  0
   -4.8024   -5.4366   19.6379 H   0  0  0  0  0  0  0  0  0  0  0  0
   -3.3458   -6.7149   18.7054 H   0  0  0  0  0  0  0  0  0  0  0  0
   -4.4567   -7.4959   19.8719 H   0  0  0  0  0  0  0  0  0  0  0  0
   -3.0873   -9.4025   16.5851 H   0  0  0  0  0  0  0  0  0  0  0  0
   -4.4314   -9.8284   17.2829 H   0  0  0  0  0  0  0  0  0  0  0  0
   -2.9756  -10.7619   17.6929 H   0  0  0  0  0  0  0  0  0  0  0  0
   -3.7101   -9.6813   20.5415 H   0  0  0  0  0  0  0  0  0  0  0  0
   -2.1970   -8.8711   20.7098 H   0  0  0  0  0  0  0  0  0  0  0  0
   -2.2534  -10.4555   19.9390 H   0  0  0  0  0  0  0  0  0  0  0  0
   -1.2091   -8.5631   17.1241 H   0  0  0  0  0  0  0  0  0  0  0  0
    1.5135   -9.4186   17.7553 H   0  0  0  0  0  0  0  0  0  0  0  0
    0.9668   -8.0049   16.8846 H   0  0  0  0  0  0  0  0  0  0  0  0
    4.3308   -6.3506   16.6100 H   0  0  0  0  0  0  0  0  0  0  0  0
    5.3180   -9.6347   18.8557 H   0  0  0  0  0  0  0  0  0  0  0  0
   -7.7197   -7.9415   16.4386 H   0  0  0  0  0  0  0  0  0  0  0  0
   -6.6293   -9.2063   17.0411 H   0  0  0  0  0  0  0  0  0  0  0  0
   -8.9353  -10.5284   15.6836 H   0  0  0  0  0  0  0  0  0  0  0  0
  -10.4250  -12.1970   17.2662 H   0  0  0  0  0  0  0  0  0  0  0  0
   -8.9351   -9.3294   19.7119 H   0  0  0  0  0  0  0  0  0  0  0  0
  1  2  1  0
  2  3  1  0
  3  4  1  0
  4  5  1  0
  4  6  1  0
  4  7  1  0
  7  8  1  0
  8  9  2  0
  8 10  1  0
 10 11  1  0
 11 12  1  0
 12 13  2  0
 13 14  1  0
 13 15  1  0
 15 16  2  0
  2 17  1  0
 17 18  2  0
 17 19  1  0
 19 20  1  0
 20 21  2  0
 21 22  1  0
 22 23  2  0
 23 24  1  0
 16 11  1  0
 24 20  1  0
  1 25  1  0
  1 26  1  0
  1 27  1  0
  3 28  1  0
  3 29  1  0
  5 30  1  0
  5 31  1  0
  5 32  1  0
  6 33  1  0
  6 34  1  0
  6 35  1  0
  7 36  1  0
 10 37  1  0
 10 38  1  0
 12 39  1  0
 15 40  1  0
 19 41  1  0
 19 42  1  0
 21 43  1  0
 22 44  1  0
 24 45  1  0
M  END
>  <Energy>  (619) 
450.66839870358456

>  <compound_id>  (619) 
13524

>  <target_id>  (619) 
1

>  <reference_id>  (619) 
81

>  <inspiration_ids>  (619) 
[112, 81]

>  <energy_score>  (619) 
366.2198566412501

>  <distance_score>  (619) 
14.50675553084743

>  <path>  (619) 
/opt/xchem-fragalysis-2/maxwin/BulkDock/SCRATCH/511016/C13524-P81/C13524-P81.minimised.mol

>  <scratch_subdir>  (619) 
/opt/xchem-fragalysis-2/maxwin/BulkDock/SCRATCH/511016/C13524-P81

>  <fragmenstein_runtime>  (619) 
36.04488706588745

>  <fragmenstein_outcome>  (619) 
too moved

>  <fragmenstein_mode>  (619) 
expansion

>  <fragmenstein_error>  (619) 


$$$$
C13525-P112
     RDKit          3D

 36 37  0  0  0  0  0  0  0  0999 V2000
    8.9390  -19.6127   15.8228 C   0  0  0  0  0  0  0  0  0  0  0  0
    8.3630  -18.2311   15.5328 C   0  0  0  0  0  0  0  0  0  0  0  0
    6.8432  -18.1511   15.9272 C   0  0  0  0  0  0  0  0  0  0  0  0
    5.8678  -19.1925   15.5710 N   0  0  0  0  0  0  0  0  0  0  0  0
    4.5060  -19.4083   16.0163 C   0  0  0  0  0  0  0  0  0  0  0  0
    3.8588  -18.8387   16.8461 O   0  0  0  0  0  0  0  0  0  0  0  0
    3.8128  -20.5539   15.3916 C   0  0  0  0  0  0  0  0  0  0  0  0
    2.4609  -20.7829   15.6278 N   0  0  0  0  0  0  0  0  0  0  0  0
    2.0065  -21.9958   15.2255 N   0  0  0  0  0  0  0  0  0  0  0  0
    3.0060  -22.4324   14.4611 C   0  0  0  0  0  0  0  0  0  0  0  0
    4.1445  -21.5929   14.5426 C   0  0  0  0  0  0  0  0  0  0  0  0
    5.6281  -21.8976   13.7747 Cl  0  0  0  0  0  0  0  0  0  0  0  0
    9.1829  -17.2054   16.2603 N   0  0  0  0  0  0  0  0  0  0  0  0
   10.2553  -16.3254   15.7916 C   0  0  0  0  0  0  0  0  0  0  0  0
   10.8015  -16.2597   14.7258 O   0  0  0  0  0  0  0  0  0  0  0  0
   10.7022  -15.3322   16.9424 C   0  0  0  0  0  0  0  0  0  0  0  0
   11.0680  -13.8902   16.5448 C   0  0  0  0  0  0  0  0  0  0  0  0
   11.8659  -13.3410   15.5542 C   0  0  0  0  0  0  0  0  0  0  0  0
   11.8085  -11.9416   15.7336 C   0  0  0  0  0  0  0  0  0  0  0  0
   11.1150  -11.6076   16.8222 N   0  0  0  0  0  0  0  0  0  0  0  0
   10.6518  -12.7918   17.2713 N   0  0  0  0  0  0  0  0  0  0  0  0
    8.4190  -20.3872   15.2508 H   0  0  0  0  0  0  0  0  0  0  0  0
   10.0005  -19.6543   15.5551 H   0  0  0  0  0  0  0  0  0  0  0  0
    8.8578  -19.8580   16.8874 H   0  0  0  0  0  0  0  0  0  0  0  0
    8.4681  -18.0263   14.4616 H   0  0  0  0  0  0  0  0  0  0  0  0
    6.4299  -17.2130   15.5404 H   0  0  0  0  0  0  0  0  0  0  0  0
    6.7730  -18.0772   17.0194 H   0  0  0  0  0  0  0  0  0  0  0  0
    6.0620  -19.8099   14.7896 H   0  0  0  0  0  0  0  0  0  0  0  0
    1.8071  -20.1432   16.0756 H   0  0  0  0  0  0  0  0  0  0  0  0
    2.8838  -23.3502   13.9003 H   0  0  0  0  0  0  0  0  0  0  0  0
    9.0251  -17.0393   17.2445 H   0  0  0  0  0  0  0  0  0  0  0  0
   11.5826  -15.7850   17.4150 H   0  0  0  0  0  0  0  0  0  0  0  0
    9.9172  -15.2812   17.7049 H   0  0  0  0  0  0  0  0  0  0  0  0
   12.3881  -13.8844   14.7773 H   0  0  0  0  0  0  0  0  0  0  0  0
   12.2592  -11.1656   15.1287 H   0  0  0  0  0  0  0  0  0  0  0  0
   10.0659  -12.7841   18.0983 H   0  0  0  0  0  0  0  0  0  0  0  0
  1  2  1  0
  2  3  1  0
  3  4  1  0
  4  5  1  0
  5  6  2  0
  5  7  1  0
  7  8  1  0
  8  9  1  0
  9 10  2  0
 10 11  1  0
 11 12  1  0
  2 13  1  0
 13 14  1  0
 14 15  2  0
 14 16  1  0
 16 17  1  0
 17 18  2  0
 18 19  1  0
 19 20  2  0
 20 21  1  0
 11  7  2  0
 21 17  1  0
  1 22  1  0
  1 23  1  0
  1 24  1  0
  2 25  1  0
  3 26  1  0
  3 27  1  0
  4 28  1  0
  8 29  1  0
 10 30  1  0
 13 31  1  0
 16 32  1  0
 16 33  1  0
 18 34  1  0
 19 35  1  0
 21 36  1  0
M  END
>  <Energy>  (620) 
11.979632207184421

>  <compound_id>  (620) 
13525

>  <target_id>  (620) 
1

>  <reference_id>  (620) 
112

>  <inspiration_ids>  (620) 
[112, 81]

>  <energy_score>  (620) 
-9.249747323601074

>  <distance_score>  (620) 
14.189570870687852

>  <path>  (620) 
/opt/xchem-fragalysis-2/maxwin/BulkDock/SCRATCH/511016/C13525-P112/C13525-P112.minimised.mol

>  <scratch_subdir>  (620) 
/opt/xchem-fragalysis-2/maxwin/BulkDock/SCRATCH/511016/C13525-P112

>  <fragmenstein_runtime>  (620) 
20.76834535598755

>  <fragmenstein_outcome>  (620) 
too moved

>  <fragmenstein_mode>  (620) 
expansion

>  <fragmenstein_error>  (620) 


$$$$
C13525-P81
     RDKit          3D

 36 37  0  0  0  0  0  0  0  0999 V2000
   -0.0437  -11.3547   11.5882 C   0  0  0  0  0  0  0  0  0  0  0  0
    1.0970  -12.1147   11.1824 C   0  0  0  0  0  0  0  0  0  0  0  0
    0.5204  -13.8310   11.7232 C   0  0  0  0  0  0  0  0  0  0  0  0
    0.6304  -15.4061   11.2410 N   0  0  0  0  0  0  0  0  0  0  0  0
    1.3924  -16.0393   10.1243 C   0  0  0  0  0  0  0  0  0  0  0  0
    2.0547  -15.5437    9.2481 O   0  0  0  0  0  0  0  0  0  0  0  0
    1.2999  -17.4989   10.0698 C   0  0  0  0  0  0  0  0  0  0  0  0
    0.7438  -18.1389    8.9792 N   0  0  0  0  0  0  0  0  0  0  0  0
    0.9111  -19.4792    8.9452 N   0  0  0  0  0  0  0  0  0  0  0  0
    1.5784  -19.7218   10.0702 C   0  0  0  0  0  0  0  0  0  0  0  0
    1.8991  -18.5380   10.7648 C   0  0  0  0  0  0  0  0  0  0  0  0
    3.0302  -18.5312   12.0236 Cl  0  0  0  0  0  0  0  0  0  0  0  0
    2.2051  -10.8974   10.8410 N   0  0  0  0  0  0  0  0  0  0  0  0
    2.0669   -9.6189    9.9634 C   0  0  0  0  0  0  0  0  0  0  0  0
    1.1040   -9.1596    9.3886 O   0  0  0  0  0  0  0  0  0  0  0  0
    3.3243   -8.8563    9.6662 C   0  0  0  0  0  0  0  0  0  0  0  0
    3.5289   -7.4279   10.1053 C   0  0  0  0  0  0  0  0  0  0  0  0
    2.7881   -6.5010   10.8113 C   0  0  0  0  0  0  0  0  0  0  0  0
    3.5978   -5.3508   10.9118 C   0  0  0  0  0  0  0  0  0  0  0  0
    4.7610   -5.5022   10.2837 N   0  0  0  0  0  0  0  0  0  0  0  0
    4.6773   -6.7369    9.7599 N   0  0  0  0  0  0  0  0  0  0  0  0
   -0.7240  -11.1799   10.7880 H   0  0  0  0  0  0  0  0  0  0  0  0
   -0.4637  -11.7899   12.4739 H   0  0  0  0  0  0  0  0  0  0  0  0
    0.3014  -10.4262   11.9523 H   0  0  0  0  0  0  0  0  0  0  0  0
    1.7785  -12.6194   10.5094 H   0  0  0  0  0  0  0  0  0  0  0  0
    0.5154  -13.8618   12.8128 H   0  0  0  0  0  0  0  0  0  0  0  0
   -0.5187  -13.7647   11.4403 H   0  0  0  0  0  0  0  0  0  0  0  0
    0.2565  -16.1305   11.8406 H   0  0  0  0  0  0  0  0  0  0  0  0
    0.2016  -17.7144    8.2355 H   0  0  0  0  0  0  0  0  0  0  0  0
    1.8750  -20.7371   10.2996 H   0  0  0  0  0  0  0  0  0  0  0  0
    3.1687  -11.0241   11.0954 H   0  0  0  0  0  0  0  0  0  0  0  0
    3.4081   -8.8530    8.5678 H   0  0  0  0  0  0  0  0  0  0  0  0
    4.0604   -9.5525    9.9655 H   0  0  0  0  0  0  0  0  0  0  0  0
    1.7906   -6.6351   11.2055 H   0  0  0  0  0  0  0  0  0  0  0  0
    3.3801   -4.4115   11.4033 H   0  0  0  0  0  0  0  0  0  0  0  0
    5.4615   -7.0709    9.2087 H   0  0  0  0  0  0  0  0  0  0  0  0
  1  2  1  0
  2  3  1  0
  3  4  1  0
  4  5  1  0
  5  6  2  0
  5  7  1  0
  7  8  1  0
  8  9  1  0
  9 10  2  0
 10 11  1  0
 11 12  1  0
  2 13  1  0
 13 14  1  0
 14 15  2  0
 14 16  1  0
 16 17  1  0
 17 18  2  0
 18 19  1  0
 19 20  2  0
 20 21  1  0
 11  7  2  0
 21 17  1  0
  1 22  1  0
  1 23  1  0
  1 24  1  0
  2 25  1  0
  3 26  1  0
  3 27  1  0
  4 28  1  0
  8 29  1  0
 10 30  1  0
 13 31  1  0
 16 32  1  0
 16 33  1  0
 18 34  1  0
 19 35  1  0
 21 36  1  0
M  END
>  <Energy>  (621) 
203.76838384377982

>  <compound_id>  (621) 
13525

>  <target_id>  (621) 
1

>  <reference_id>  (621) 
81

>  <inspiration_ids>  (621) 
[112, 81]

>  <energy_score>  (621) 
182.53900431299627

>  <distance_score>  (621) 
13.632323640791816

>  <path>  (621) 
/opt/xchem-fragalysis-2/maxwin/BulkDock/SCRATCH/511016/C13525-P81/C13525-P81.minimised.mol

>  <scratch_subdir>  (621) 
/opt/xchem-fragalysis-2/maxwin/BulkDock/SCRATCH/511016/C13525-P81

>  <fragmenstein_runtime>  (621) 
29.96797800064087

>  <fragmenstein_outcome>  (621) 
too moved

>  <fragmenstein_mode>  (621) 
expansion

>  <fragmenstein_error>  (621) 


$$$$
C13526-P112
     RDKit          3D

 36 37  0  0  0  0  0  0  0  0999 V2000
    1.6593  -22.7292   13.7371 C   0  0  0  0  0  0  0  0  0  0  0  0
    0.8268  -22.0013   12.6807 C   0  0  0  0  0  0  0  0  0  0  0  0
    1.7245  -21.5023   11.5220 C   0  0  0  0  0  0  0  0  0  0  0  0
    2.5713  -20.3519   11.8316 N   0  0  0  0  0  0  0  0  0  0  0  0
    3.8969  -20.2764   12.4198 C   0  0  0  0  0  0  0  0  0  0  0  0
    4.6004  -21.1347   12.8736 O   0  0  0  0  0  0  0  0  0  0  0  0
    4.4486  -18.8287   12.3093 C   0  0  0  0  0  0  0  0  0  0  0  0
    5.1489  -18.3138   13.5360 C   0  0  0  0  0  0  0  0  0  0  0  0
    6.4791  -18.2724   13.8987 C   0  0  0  0  0  0  0  0  0  0  0  0
    6.5039  -17.5787   15.1212 C   0  0  0  0  0  0  0  0  0  0  0  0
    5.2874  -17.1993   15.5161 N   0  0  0  0  0  0  0  0  0  0  0  0
    4.4787  -17.7103   14.5689 N   0  0  0  0  0  0  0  0  0  0  0  0
   -0.3119  -22.8365   12.2409 N   0  0  0  0  0  0  0  0  0  0  0  0
   -1.2607  -23.6070   12.9944 C   0  0  0  0  0  0  0  0  0  0  0  0
   -1.3248  -23.8342   14.1670 O   0  0  0  0  0  0  0  0  0  0  0  0
   -2.3316  -24.1911   12.1872 C   0  0  0  0  0  0  0  0  0  0  0  0
   -3.1492  -25.1587   12.7341 N   0  0  0  0  0  0  0  0  0  0  0  0
   -4.1698  -25.5641   11.9555 N   0  0  0  0  0  0  0  0  0  0  0  0
   -4.0062  -24.8300   10.8545 C   0  0  0  0  0  0  0  0  0  0  0  0
   -2.8703  -23.9904   10.9323 C   0  0  0  0  0  0  0  0  0  0  0  0
   -2.3587  -22.9494    9.6963 Cl  0  0  0  0  0  0  0  0  0  0  0  0
    2.4565  -22.0907   14.1264 H   0  0  0  0  0  0  0  0  0  0  0  0
    1.0490  -23.0269   14.5948 H   0  0  0  0  0  0  0  0  0  0  0  0
    2.1126  -23.6367   13.3239 H   0  0  0  0  0  0  0  0  0  0  0  0
    0.3638  -21.1257   13.1406 H   0  0  0  0  0  0  0  0  0  0  0  0
    1.1000  -21.1962   10.6755 H   0  0  0  0  0  0  0  0  0  0  0  0
    2.3762  -22.3126   11.1763 H   0  0  0  0  0  0  0  0  0  0  0  0
    2.2439  -19.4115   11.6290 H   0  0  0  0  0  0  0  0  0  0  0  0
    5.1660  -18.8461   11.4778 H   0  0  0  0  0  0  0  0  0  0  0  0
    3.6727  -18.1237   12.0060 H   0  0  0  0  0  0  0  0  0  0  0  0
    7.3180  -18.6712   13.3476 H   0  0  0  0  0  0  0  0  0  0  0  0
    7.3666  -17.3268   15.7194 H   0  0  0  0  0  0  0  0  0  0  0  0
    3.4729  -17.5756   14.6536 H   0  0  0  0  0  0  0  0  0  0  0  0
   -0.5214  -22.9295   11.2526 H   0  0  0  0  0  0  0  0  0  0  0  0
   -3.0489  -25.5565   13.6626 H   0  0  0  0  0  0  0  0  0  0  0  0
   -4.7073  -24.9408   10.0370 H   0  0  0  0  0  0  0  0  0  0  0  0
  1  2  1  0
  2  3  1  0
  3  4  1  0
  4  5  1  0
  5  6  2  0
  5  7  1  0
  7  8  1  0
  8  9  2  0
  9 10  1  0
 10 11  2  0
 11 12  1  0
  2 13  1  0
 13 14  1  0
 14 15  2  0
 14 16  1  0
 16 17  1  0
 17 18  1  0
 18 19  2  0
 19 20  1  0
 20 21  1  0
 12  8  1  0
 20 16  2  0
  1 22  1  0
  1 23  1  0
  1 24  1  0
  2 25  1  0
  3 26  1  0
  3 27  1  0
  4 28  1  0
  7 29  1  0
  7 30  1  0
  9 31  1  0
 10 32  1  0
 12 33  1  0
 13 34  1  0
 17 35  1  0
 19 36  1  0
M  END
>  <Energy>  (622) 
3.6929346397934926

>  <compound_id>  (622) 
13526

>  <target_id>  (622) 
1

>  <reference_id>  (622) 
112

>  <inspiration_ids>  (622) 
[112, 81]

>  <energy_score>  (622) 
-3.968897939008855

>  <distance_score>  (622) 
13.26238709524421

>  <path>  (622) 
/opt/xchem-fragalysis-2/maxwin/BulkDock/SCRATCH/511016/C13526-P112/C13526-P112.minimised.mol

>  <scratch_subdir>  (622) 
/opt/xchem-fragalysis-2/maxwin/BulkDock/SCRATCH/511016/C13526-P112

>  <fragmenstein_runtime>  (622) 
27.89675211906433

>  <fragmenstein_outcome>  (622) 
too moved

>  <fragmenstein_mode>  (622) 
expansion

>  <fragmenstein_error>  (622) 


$$$$
C13526-P81
     RDKit          3D

 36 37  0  0  0  0  0  0  0  0999 V2000
    5.0425  -15.7271    8.7361 C   0  0  0  0  0  0  0  0  0  0  0  0
    3.6918  -15.2533    8.1915 C   0  0  0  0  0  0  0  0  0  0  0  0
    3.9296  -14.3088    6.9730 C   0  0  0  0  0  0  0  0  0  0  0  0
    4.3384  -12.9272    7.3245 N   0  0  0  0  0  0  0  0  0  0  0  0
    5.6738  -12.3156    7.4393 C   0  0  0  0  0  0  0  0  0  0  0  0
    6.7653  -12.8040    7.3541 O   0  0  0  0  0  0  0  0  0  0  0  0
    5.4926  -10.7704    7.6419 C   0  0  0  0  0  0  0  0  0  0  0  0
    6.6462   -9.9091    8.1556 C   0  0  0  0  0  0  0  0  0  0  0  0
    7.9898  -10.1004    8.4259 C   0  0  0  0  0  0  0  0  0  0  0  0
    8.4617   -8.8682    8.9372 C   0  0  0  0  0  0  0  0  0  0  0  0
    7.5005   -7.9463    8.9829 N   0  0  0  0  0  0  0  0  0  0  0  0
    6.4278   -8.5885    8.4995 N   0  0  0  0  0  0  0  0  0  0  0  0
    2.8191  -16.4453    8.0145 N   0  0  0  0  0  0  0  0  0  0  0  0
    1.5962  -16.6195    7.2791 C   0  0  0  0  0  0  0  0  0  0  0  0
    1.0093  -15.8708    6.5555 O   0  0  0  0  0  0  0  0  0  0  0  0
    0.9575  -17.9370    7.5113 C   0  0  0  0  0  0  0  0  0  0  0  0
   -0.2561  -18.2617    6.9202 N   0  0  0  0  0  0  0  0  0  0  0  0
   -0.6653  -19.5369    7.1001 N   0  0  0  0  0  0  0  0  0  0  0  0
    0.2137  -20.0045    7.9881 C   0  0  0  0  0  0  0  0  0  0  0  0
    1.2281  -19.0605    8.2794 C   0  0  0  0  0  0  0  0  0  0  0  0
    2.5240  -19.3386    9.3417 Cl  0  0  0  0  0  0  0  0  0  0  0  0
    4.9094  -16.4028    9.5870 H   0  0  0  0  0  0  0  0  0  0  0  0
    5.6579  -14.8851    9.0663 H   0  0  0  0  0  0  0  0  0  0  0  0
    5.5993  -16.2819    7.9726 H   0  0  0  0  0  0  0  0  0  0  0  0
    3.1923  -14.6681    8.9701 H   0  0  0  0  0  0  0  0  0  0  0  0
    4.6916  -14.7245    6.3051 H   0  0  0  0  0  0  0  0  0  0  0  0
    3.0048  -14.1976    6.3995 H   0  0  0  0  0  0  0  0  0  0  0  0
    3.6340  -12.1990    7.3686 H   0  0  0  0  0  0  0  0  0  0  0  0
    5.1675  -10.3619    6.6768 H   0  0  0  0  0  0  0  0  0  0  0  0
    4.6706  -10.6499    8.3563 H   0  0  0  0  0  0  0  0  0  0  0  0
    8.5518  -11.0144    8.2891 H   0  0  0  0  0  0  0  0  0  0  0  0
    9.4571   -8.6078    9.2754 H   0  0  0  0  0  0  0  0  0  0  0  0
    5.5605   -8.0677    8.4403 H   0  0  0  0  0  0  0  0  0  0  0  0
    3.0640  -17.3225    8.4607 H   0  0  0  0  0  0  0  0  0  0  0  0
   -0.8092  -17.6504    6.3285 H   0  0  0  0  0  0  0  0  0  0  0  0
    0.0893  -21.0059    8.3773 H   0  0  0  0  0  0  0  0  0  0  0  0
  1  2  1  0
  2  3  1  0
  3  4  1  0
  4  5  1  0
  5  6  2  0
  5  7  1  0
  7  8  1  0
  8  9  2  0
  9 10  1  0
 10 11  2  0
 11 12  1  0
  2 13  1  0
 13 14  1  0
 14 15  2  0
 14 16  1  0
 16 17  1  0
 17 18  1  0
 18 19  2  0
 19 20  1  0
 20 21  1  0
 12  8  1  0
 20 16  2  0
  1 22  1  0
  1 23  1  0
  1 24  1  0
  2 25  1  0
  3 26  1  0
  3 27  1  0
  4 28  1  0
  7 29  1  0
  7 30  1  0
  9 31  1  0
 10 32  1  0
 12 33  1  0
 13 34  1  0
 17 35  1  0
 19 36  1  0
M  END
>  <Energy>  (623) 
6.5549438964159421

>  <compound_id>  (623) 
13526

>  <target_id>  (623) 
1

>  <reference_id>  (623) 
81

>  <inspiration_ids>  (623) 
[112, 81]

>  <energy_score>  (623) 
-1.1068886823861988

>  <distance_score>  (623) 
13.793313576996507

>  <path>  (623) 
/opt/xchem-fragalysis-2/maxwin/BulkDock/SCRATCH/511016/C13526-P81/C13526-P81.minimised.mol

>  <scratch_subdir>  (623) 
/opt/xchem-fragalysis-2/maxwin/BulkDock/SCRATCH/511016/C13526-P81

>  <fragmenstein_runtime>  (623) 
26.900821685791016

>  <fragmenstein_outcome>  (623) 
too moved

>  <fragmenstein_mode>  (623) 
expansion

>  <fragmenstein_error>  (623) 


$$$$
C13527-P112
     RDKit          3D

 36 37  0  0  0  0  0  0  0  0999 V2000
   -3.6749  -16.8338   16.9426 C   0  0  0  0  0  0  0  0  0  0  0  0
   -3.9415  -16.3012   15.6574 N   0  0  0  0  0  0  0  0  0  0  0  0
   -2.7417  -14.8601   14.9239 C   0  0  0  0  0  0  0  0  0  0  0  0
   -1.1612  -13.8903   13.7407 C   0  0  0  0  0  0  0  0  0  0  0  0
    0.1211  -12.6112   13.0556 N   0  0  0  0  0  0  0  0  0  0  0  0
    0.0165  -11.4783   11.7736 C   0  0  0  0  0  0  0  0  0  0  0  0
   -0.8972  -11.3872   11.0406 O   0  0  0  0  0  0  0  0  0  0  0  0
    1.3427  -10.1842   11.2984 C   0  0  0  0  0  0  0  0  0  0  0  0
    1.0960   -8.2824   10.8101 C   0  0  0  0  0  0  0  0  0  0  0  0
    0.4485   -7.6177    9.7051 C   0  0  0  0  0  0  0  0  0  0  0  0
    0.7421   -6.2334    9.7699 C   0  0  0  0  0  0  0  0  0  0  0  0
    1.6587   -5.9711   10.6897 N   0  0  0  0  0  0  0  0  0  0  0  0
    1.9794   -7.1934   11.1284 N   0  0  0  0  0  0  0  0  0  0  0  0
   -5.1683  -16.9665   15.0558 C   0  0  0  0  0  0  0  0  0  0  0  0
   -5.1250  -17.9617   14.3705 O   0  0  0  0  0  0  0  0  0  0  0  0
   -6.5797  -16.5940   15.3201 C   0  0  0  0  0  0  0  0  0  0  0  0
   -7.1584  -16.6329   16.5658 N   0  0  0  0  0  0  0  0  0  0  0  0
   -8.4763  -16.3634   16.5917 N   0  0  0  0  0  0  0  0  0  0  0  0
   -8.7763  -16.1819   15.3046 C   0  0  0  0  0  0  0  0  0  0  0  0
   -7.6551  -16.3528   14.4677 C   0  0  0  0  0  0  0  0  0  0  0  0
   -7.6732  -16.2011   12.7721 Cl  0  0  0  0  0  0  0  0  0  0  0  0
   -4.6229  -16.8924   17.4834 H   0  0  0  0  0  0  0  0  0  0  0  0
   -3.4373  -17.8961   16.8321 H   0  0  0  0  0  0  0  0  0  0  0  0
   -3.0300  -16.3182   17.5625 H   0  0  0  0  0  0  0  0  0  0  0  0
   -2.3788  -15.9008   14.8145 H   0  0  0  0  0  0  0  0  0  0  0  0
   -2.9009  -14.3156   15.9399 H   0  0  0  0  0  0  0  0  0  0  0  0
   -0.8875  -14.3810   12.7442 H   0  0  0  0  0  0  0  0  0  0  0  0
   -1.3313  -12.8918   13.9028 H   0  0  0  0  0  0  0  0  0  0  0  0
    0.9558  -12.4333   13.5837 H   0  0  0  0  0  0  0  0  0  0  0  0
    2.3718  -10.4332   11.5368 H   0  0  0  0  0  0  0  0  0  0  0  0
    1.4262  -10.3879   10.2521 H   0  0  0  0  0  0  0  0  0  0  0  0
   -0.2017   -8.0962    8.9816 H   0  0  0  0  0  0  0  0  0  0  0  0
    0.3502   -5.4327    9.1569 H   0  0  0  0  0  0  0  0  0  0  0  0
    2.8459   -7.3138   11.6379 H   0  0  0  0  0  0  0  0  0  0  0  0
   -6.7158  -16.8628   17.4470 H   0  0  0  0  0  0  0  0  0  0  0  0
   -9.7958  -15.9505   15.0249 H   0  0  0  0  0  0  0  0  0  0  0  0
  1  2  1  0
  2  3  1  0
  3  4  1  0
  4  5  1  0
  5  6  1  0
  6  7  2  0
  6  8  1  0
  8  9  1  0
  9 10  2  0
 10 11  1  0
 11 12  2  0
 12 13  1  0
  2 14  1  0
 14 15  2  0
 14 16  1  0
 16 17  1  0
 17 18  1  0
 18 19  2  0
 19 20  1  0
 20 21  1  0
 13  9  1  0
 20 16  2  0
  1 22  1  0
  1 23  1  0
  1 24  1  0
  3 25  1  0
  3 26  1  0
  4 27  1  0
  4 28  1  0
  5 29  1  0
  8 30  1  0
  8 31  1  0
 10 32  1  0
 11 33  1  0
 13 34  1  0
 17 35  1  0
 19 36  1  0
M  END
>  <Energy>  (624) 
671.73015326313703

>  <compound_id>  (624) 
13527

>  <target_id>  (624) 
1

>  <reference_id>  (624) 
112

>  <inspiration_ids>  (624) 
[112, 81]

>  <energy_score>  (624) 
627.2487049360652

>  <distance_score>  (624) 
11.535583431408645

>  <path>  (624) 
/opt/xchem-fragalysis-2/maxwin/BulkDock/SCRATCH/511016/C13527-P112/C13527-P112.minimised.mol

>  <scratch_subdir>  (624) 
/opt/xchem-fragalysis-2/maxwin/BulkDock/SCRATCH/511016/C13527-P112

>  <fragmenstein_runtime>  (624) 
8.98420000076294

>  <fragmenstein_outcome>  (624) 
too moved

>  <fragmenstein_mode>  (624) 
expansion

>  <fragmenstein_error>  (624) 


$$$$
C13527-P81
     RDKit          3D

 36 37  0  0  0  0  0  0  0  0999 V2000
   -2.6555  -14.7195   10.8016 C   0  0  0  0  0  0  0  0  0  0  0  0
   -3.1148  -14.3217   12.4334 N   0  0  0  0  0  0  0  0  0  0  0  0
   -1.4886  -13.7409   13.7996 C   0  0  0  0  0  0  0  0  0  0  0  0
    0.2657  -12.6924   13.1773 C   0  0  0  0  0  0  0  0  0  0  0  0
    1.7047  -11.2317   12.8884 N   0  0  0  0  0  0  0  0  0  0  0  0
    3.2891  -10.7491   13.9233 C   0  0  0  0  0  0  0  0  0  0  0  0
    3.7451  -11.3441   14.9498 O   0  0  0  0  0  0  0  0  0  0  0  0
    4.3105   -9.5586   13.4867 C   0  0  0  0  0  0  0  0  0  0  0  0
    5.8306   -8.5410   13.9609 C   0  0  0  0  0  0  0  0  0  0  0  0
    7.3750   -9.0924   13.8575 C   0  0  0  0  0  0  0  0  0  0  0  0
    7.9009   -7.9473   13.8499 C   0  0  0  0  0  0  0  0  0  0  0  0
    7.3004   -7.4991   12.7237 N   0  0  0  0  0  0  0  0  0  0  0  0
    5.9996   -7.3823   13.2993 N   0  0  0  0  0  0  0  0  0  0  0  0
   -4.9696  -14.4994   12.6940 C   0  0  0  0  0  0  0  0  0  0  0  0
   -5.7224  -13.5070   12.4961 O   0  0  0  0  0  0  0  0  0  0  0  0
   -5.9235  -15.8690   13.0152 C   0  0  0  0  0  0  0  0  0  0  0  0
   -6.1496  -16.7113   14.1256 N   0  0  0  0  0  0  0  0  0  0  0  0
   -7.4647  -16.7972   14.4282 N   0  0  0  0  0  0  0  0  0  0  0  0
   -8.0526  -16.4820   13.2695 C   0  0  0  0  0  0  0  0  0  0  0  0
   -7.1310  -16.0295   12.3154 C   0  0  0  0  0  0  0  0  0  0  0  0
   -7.5577  -15.4941   10.7608 Cl  0  0  0  0  0  0  0  0  0  0  0  0
   -1.5774  -14.9136   10.8071 H   0  0  0  0  0  0  0  0  0  0  0  0
   -3.2496  -15.5529   10.4494 H   0  0  0  0  0  0  0  0  0  0  0  0
   -3.0029  -14.2655    9.8623 H   0  0  0  0  0  0  0  0  0  0  0  0
   -2.8848  -13.8116   13.6930 H   0  0  0  0  0  0  0  0  0  0  0  0
   -1.4930  -14.1907   14.7943 H   0  0  0  0  0  0  0  0  0  0  0  0
   -0.1314  -12.4259   12.1865 H   0  0  0  0  0  0  0  0  0  0  0  0
    0.7780  -13.6281   12.9359 H   0  0  0  0  0  0  0  0  0  0  0  0
    1.6269  -10.6253   12.0687 H   0  0  0  0  0  0  0  0  0  0  0  0
    3.9124   -8.6366   13.8785 H   0  0  0  0  0  0  0  0  0  0  0  0
    5.0671  -10.3278   13.7481 H   0  0  0  0  0  0  0  0  0  0  0  0
    7.8023  -10.0001   14.2771 H   0  0  0  0  0  0  0  0  0  0  0  0
    8.6453   -7.5707   14.5225 H   0  0  0  0  0  0  0  0  0  0  0  0
    5.3088   -6.7517   12.8925 H   0  0  0  0  0  0  0  0  0  0  0  0
   -5.4966  -16.9061   14.8749 H   0  0  0  0  0  0  0  0  0  0  0  0
   -9.1256  -16.5788   13.1738 H   0  0  0  0  0  0  0  0  0  0  0  0
  1  2  1  0
  2  3  1  0
  3  4  1  0
  4  5  1  0
  5  6  1  0
  6  7  2  0
  6  8  1  0
  8  9  1  0
  9 10  2  0
 10 11  1  0
 11 12  2  0
 12 13  1  0
  2 14  1  0
 14 15  2  0
 14 16  1  0
 16 17  1  0
 17 18  1  0
 18 19  2  0
 19 20  1  0
 20 21  1  0
 13  9  1  0
 20 16  2  0
  1 22  1  0
  1 23  1  0
  1 24  1  0
  3 25  1  0
  3 26  1  0
  4 27  1  0
  4 28  1  0
  5 29  1  0
  8 30  1  0
  8 31  1  0
 10 32  1  0
 11 33  1  0
 13 34  1  0
 17 35  1  0
 19 36  1  0
M  END
>  <Energy>  (625) 
1079.0542884742679

>  <compound_id>  (625) 
13527

>  <target_id>  (625) 
1

>  <reference_id>  (625) 
81

>  <inspiration_ids>  (625) 
[112, 81]

>  <energy_score>  (625) 
1034.5728401472038

>  <distance_score>  (625) 
10.250668787295258

>  <path>  (625) 
/opt/xchem-fragalysis-2/maxwin/BulkDock/SCRATCH/511016/C13527-P81/C13527-P81.minimised.mol

>  <scratch_subdir>  (625) 
/opt/xchem-fragalysis-2/maxwin/BulkDock/SCRATCH/511016/C13527-P81

>  <fragmenstein_runtime>  (625) 
16.28852653503418

>  <fragmenstein_outcome>  (625) 
too moved

>  <fragmenstein_mode>  (625) 
expansion

>  <fragmenstein_error>  (625) 


$$$$
C13528-P112
     RDKit          3D

 39 40  0  0  0  0  0  0  0  0999 V2000
   -0.1277  -12.5012   12.7364 C   0  0  0  0  0  0  0  0  0  0  0  0
    0.4165  -13.0840   11.5163 C   0  0  0  0  0  0  0  0  0  0  0  0
   -0.2028  -14.6875   11.3060 C   0  0  0  0  0  0  0  0  0  0  0  0
    0.4555  -16.0563   11.1319 N   0  0  0  0  0  0  0  0  0  0  0  0
    0.0926  -17.1960   10.2860 C   0  0  0  0  0  0  0  0  0  0  0  0
   -0.7688  -17.3124    9.4497 O   0  0  0  0  0  0  0  0  0  0  0  0
    0.8656  -18.5115   10.5796 C   0  0  0  0  0  0  0  0  0  0  0  0
   -0.1775  -19.6179   10.9216 C   0  0  0  0  0  0  0  0  0  0  0  0
   -0.3119  -20.5134   11.9715 C   0  0  0  0  0  0  0  0  0  0  0  0
   -1.5320  -21.1970   11.7460 C   0  0  0  0  0  0  0  0  0  0  0  0
   -2.1298  -20.7912   10.6250 N   0  0  0  0  0  0  0  0  0  0  0  0
   -1.2902  -19.8585   10.1339 N   0  0  0  0  0  0  0  0  0  0  0  0
    1.3569  -11.8404   11.2154 N   0  0  0  0  0  0  0  0  0  0  0  0
    2.5730  -11.7068   10.3137 C   0  0  0  0  0  0  0  0  0  0  0  0
    3.0654  -12.4894    9.5320 O   0  0  0  0  0  0  0  0  0  0  0  0
    3.2898  -10.4735   10.5328 C   0  0  0  0  0  0  0  0  0  0  0  0
    3.2332   -9.5678   11.7085 N   0  0  0  0  0  0  0  0  0  0  0  0
    3.4771   -7.8130   11.9275 C   0  0  0  0  0  0  0  0  0  0  0  0
    4.1439   -7.6719   13.3910 C   0  0  0  0  0  0  0  0  0  0  0  0
    3.6072   -6.4296   15.0188 Cl  0  0  0  0  0  0  0  0  0  0  0  0
    4.4688   -9.0212   13.6984 C   0  0  0  0  0  0  0  0  0  0  0  0
    3.9229  -10.0423   13.1219 N   0  0  0  0  0  0  0  0  0  0  0  0
   -0.6671  -13.2256   13.2998 H   0  0  0  0  0  0  0  0  0  0  0  0
    0.7134  -12.2404   13.3632 H   0  0  0  0  0  0  0  0  0  0  0  0
   -0.6665  -11.5845   12.5126 H   0  0  0  0  0  0  0  0  0  0  0  0
    1.2469  -13.6504   11.9289 H   0  0  0  0  0  0  0  0  0  0  0  0
   -1.1991  -14.7312   10.8678 H   0  0  0  0  0  0  0  0  0  0  0  0
   -0.4487  -14.8146   12.3277 H   0  0  0  0  0  0  0  0  0  0  0  0
    1.1811  -16.3437   11.7818 H   0  0  0  0  0  0  0  0  0  0  0  0
    1.5604  -18.4014   11.4124 H   0  0  0  0  0  0  0  0  0  0  0  0
    1.4271  -18.7982    9.6847 H   0  0  0  0  0  0  0  0  0  0  0  0
    0.3638  -20.6436   12.8052 H   0  0  0  0  0  0  0  0  0  0  0  0
   -2.0066  -21.9607   12.3516 H   0  0  0  0  0  0  0  0  0  0  0  0
   -1.5571  -19.3503    9.2937 H   0  0  0  0  0  0  0  0  0  0  0  0
    1.1830  -10.9479   11.6816 H   0  0  0  0  0  0  0  0  0  0  0  0
    4.0737  -10.1958    9.8744 H   0  0  0  0  0  0  0  0  0  0  0  0
    4.0532  -11.0952   10.9192 H   0  0  0  0  0  0  0  0  0  0  0  0
    2.5978   -7.3095   11.5236 H   0  0  0  0  0  0  0  0  0  0  0  0
    5.2550   -9.4812   14.2227 H   0  0  0  0  0  0  0  0  0  0  0  0
  1  2  1  0
  2  3  1  0
  3  4  1  0
  4  5  1  0
  5  6  2  0
  5  7  1  0
  7  8  1  0
  8  9  2  0
  9 10  1  0
 10 11  2  0
 11 12  1  0
  2 13  1  0
 13 14  1  0
 14 15  2  0
 14 16  1  0
 16 17  1  0
 17 18  1  0
 18 19  2  0
 19 20  1  0
 19 21  1  0
 21 22  2  0
 12  8  1  0
 22 17  1  0
  1 23  1  0
  1 24  1  0
  1 25  1  0
  2 26  1  0
  3 27  1  0
  3 28  1  0
  4 29  1  0
  7 30  1  0
  7 31  1  0
  9 32  1  0
 10 33  1  0
 12 34  1  0
 13 35  1  0
 16 36  1  0
 16 37  1  0
 18 38  1  0
 21 39  1  0
M  END
>  <Energy>  (626) 
355.21601520989788

>  <compound_id>  (626) 
13528

>  <target_id>  (626) 
1

>  <reference_id>  (626) 
112

>  <inspiration_ids>  (626) 
[112, 81]

>  <energy_score>  (626) 
286.4284850594195

>  <distance_score>  (626) 
12.122328526041823

>  <path>  (626) 
/opt/xchem-fragalysis-2/maxwin/BulkDock/SCRATCH/511016/C13528-P112/C13528-P112.minimised.mol

>  <scratch_subdir>  (626) 
/opt/xchem-fragalysis-2/maxwin/BulkDock/SCRATCH/511016/C13528-P112

>  <fragmenstein_runtime>  (626) 
20.21420407295227

>  <fragmenstein_outcome>  (626) 
too moved

>  <fragmenstein_mode>  (626) 
expansion

>  <fragmenstein_error>  (626) 


$$$$
C13528-P81
     RDKit          3D

 39 40  0  0  0  0  0  0  0  0999 V2000
   -0.2066  -11.2818   11.2786 C   0  0  0  0  0  0  0  0  0  0  0  0
    0.5549  -12.3725   11.6703 C   0  0  0  0  0  0  0  0  0  0  0  0
   -0.2019  -14.2125   11.3792 C   0  0  0  0  0  0  0  0  0  0  0  0
   -1.9724  -14.6856   10.9102 N   0  0  0  0  0  0  0  0  0  0  0  0
   -2.5522  -15.6507    9.7109 C   0  0  0  0  0  0  0  0  0  0  0  0
   -1.9507  -16.3546    8.8946 O   0  0  0  0  0  0  0  0  0  0  0  0
   -4.2500  -15.6502    9.3880 C   0  0  0  0  0  0  0  0  0  0  0  0
   -5.5422  -16.3136    9.8625 C   0  0  0  0  0  0  0  0  0  0  0  0
   -6.2958  -17.3230    9.3155 C   0  0  0  0  0  0  0  0  0  0  0  0
   -7.4873  -17.3889   10.0715 C   0  0  0  0  0  0  0  0  0  0  0  0
   -7.5391  -16.4367   10.9976 N   0  0  0  0  0  0  0  0  0  0  0  0
   -6.4037  -15.7455   10.7873 N   0  0  0  0  0  0  0  0  0  0  0  0
    1.8214  -11.1728   12.4962 N   0  0  0  0  0  0  0  0  0  0  0  0
    3.1649  -10.3033   11.8629 C   0  0  0  0  0  0  0  0  0  0  0  0
    3.4491  -10.2761   10.6855 O   0  0  0  0  0  0  0  0  0  0  0  0
    4.3650   -9.3397   13.3751 C   0  0  0  0  0  0  0  0  0  0  0  0
    5.8342   -7.9804   13.6905 N   0  0  0  0  0  0  0  0  0  0  0  0
    7.4699   -7.5770   13.2003 C   0  0  0  0  0  0  0  0  0  0  0  0
    8.2840   -6.5981   14.6364 C   0  0  0  0  0  0  0  0  0  0  0  0
    9.1519   -4.3877   14.8376 Cl  0  0  0  0  0  0  0  0  0  0  0  0
    7.0784   -6.6557   15.5047 C   0  0  0  0  0  0  0  0  0  0  0  0
    6.4467   -7.6662   14.9786 N   0  0  0  0  0  0  0  0  0  0  0  0
   -0.8322  -11.5036   10.4650 H   0  0  0  0  0  0  0  0  0  0  0  0
    0.5426  -10.5551   10.9286 H   0  0  0  0  0  0  0  0  0  0  0  0
   -0.7505  -10.8957   12.1375 H   0  0  0  0  0  0  0  0  0  0  0  0
    0.1901  -12.5501   12.7040 H   0  0  0  0  0  0  0  0  0  0  0  0
   -0.1135  -14.5473   12.4127 H   0  0  0  0  0  0  0  0  0  0  0  0
    0.4309  -14.9646   10.8991 H   0  0  0  0  0  0  0  0  0  0  0  0
   -2.7484  -14.3149   11.4529 H   0  0  0  0  0  0  0  0  0  0  0  0
   -4.5901  -14.6356    9.1994 H   0  0  0  0  0  0  0  0  0  0  0  0
   -4.2144  -16.1281    8.3882 H   0  0  0  0  0  0  0  0  0  0  0  0
   -5.9837  -17.8945    8.4590 H   0  0  0  0  0  0  0  0  0  0  0  0
   -8.3241  -18.0689    9.9780 H   0  0  0  0  0  0  0  0  0  0  0  0
   -6.2264  -14.8992   11.3253 H   0  0  0  0  0  0  0  0  0  0  0  0
    1.8458  -11.1147   13.4762 H   0  0  0  0  0  0  0  0  0  0  0  0
    3.8849   -8.4845   13.8209 H   0  0  0  0  0  0  0  0  0  0  0  0
    4.8580  -10.1250   13.9636 H   0  0  0  0  0  0  0  0  0  0  0  0
    7.5811   -7.5274   12.1298 H   0  0  0  0  0  0  0  0  0  0  0  0
    6.7702   -6.1145   16.3917 H   0  0  0  0  0  0  0  0  0  0  0  0
  1  2  1  0
  2  3  1  0
  3  4  1  0
  4  5  1  0
  5  6  2  0
  5  7  1  0
  7  8  1  0
  8  9  2  0
  9 10  1  0
 10 11  2  0
 11 12  1  0
  2 13  1  0
 13 14  1  0
 14 15  2  0
 14 16  1  0
 16 17  1  0
 17 18  1  0
 18 19  2  0
 19 20  1  0
 19 21  1  0
 21 22  2  0
 12  8  1  0
 22 17  1  0
  1 23  1  0
  1 24  1  0
  1 25  1  0
  2 26  1  0
  3 27  1  0
  3 28  1  0
  4 29  1  0
  7 30  1  0
  7 31  1  0
  9 32  1  0
 10 33  1  0
 12 34  1  0
 13 35  1  0
 16 36  1  0
 16 37  1  0
 18 38  1  0
 21 39  1  0
M  END
>  <Energy>  (627) 
944.00294809344246

>  <compound_id>  (627) 
13528

>  <target_id>  (627) 
1

>  <reference_id>  (627) 
81

>  <inspiration_ids>  (627) 
[112, 81]

>  <energy_score>  (627) 
875.2154179429812

>  <distance_score>  (627) 
10.048086373146415

>  <path>  (627) 
/opt/xchem-fragalysis-2/maxwin/BulkDock/SCRATCH/511016/C13528-P81/C13528-P81.minimised.mol

>  <scratch_subdir>  (627) 
/opt/xchem-fragalysis-2/maxwin/BulkDock/SCRATCH/511016/C13528-P81

>  <fragmenstein_runtime>  (627) 
22.343247413635254

>  <fragmenstein_outcome>  (627) 
too moved

>  <fragmenstein_mode>  (627) 
expansion

>  <fragmenstein_error>  (627) 


$$$$
C13529-P112
     RDKit          3D

 45 46  0  0  0  0  0  0  0  0999 V2000
    0.7328  -10.4752   10.6437 C   0  0  0  0  0  0  0  0  0  0  0  0
    0.4505  -11.9067   11.4651 C   0  0  0  0  0  0  0  0  0  0  0  0
   -0.5493  -11.5219   12.4130 C   0  0  0  0  0  0  0  0  0  0  0  0
   -0.7380  -13.6623   11.2760 C   0  0  0  0  0  0  0  0  0  0  0  0
   -2.5394  -14.6373   10.5649 C   0  0  0  0  0  0  0  0  0  0  0  0
   -4.2805  -14.4516    9.5270 N   0  0  0  0  0  0  0  0  0  0  0  0
   -6.0908  -14.7323   10.0786 C   0  0  0  0  0  0  0  0  0  0  0  0
   -6.5276  -14.9989   11.2249 O   0  0  0  0  0  0  0  0  0  0  0  0
   -7.2002  -14.7631    8.8971 C   0  0  0  0  0  0  0  0  0  0  0  0
   -7.9364  -16.1573    9.0323 C   0  0  0  0  0  0  0  0  0  0  0  0
   -8.6469  -16.9548    8.1542 C   0  0  0  0  0  0  0  0  0  0  0  0
   -9.0857  -18.0672    8.9124 C   0  0  0  0  0  0  0  0  0  0  0  0
   -8.6868  -18.0069   10.1814 N   0  0  0  0  0  0  0  0  0  0  0  0
   -8.0047  -16.8465   10.2336 N   0  0  0  0  0  0  0  0  0  0  0  0
    1.7429  -10.9137   12.4645 N   0  0  0  0  0  0  0  0  0  0  0  0
    3.2432  -10.0242   11.9633 C   0  0  0  0  0  0  0  0  0  0  0  0
    3.5661   -9.9944   10.8085 O   0  0  0  0  0  0  0  0  0  0  0  0
    4.3023   -8.9152   13.4834 C   0  0  0  0  0  0  0  0  0  0  0  0
    5.5531   -7.4055   13.9821 N   0  0  0  0  0  0  0  0  0  0  0  0
    5.9332   -6.3238   15.5248 C   0  0  0  0  0  0  0  0  0  0  0  0
    7.1512   -5.5901   15.7499 C   0  0  0  0  0  0  0  0  0  0  0  0
    8.2663   -3.6070   15.3915 Cl  0  0  0  0  0  0  0  0  0  0  0  0
    7.5710   -6.6176   14.9401 C   0  0  0  0  0  0  0  0  0  0  0  0
    6.8181   -7.6246   14.2853 N   0  0  0  0  0  0  0  0  0  0  0  0
    0.1907  -10.1359    9.7701 H   0  0  0  0  0  0  0  0  0  0  0  0
    0.8206   -9.5726   11.2252 H   0  0  0  0  0  0  0  0  0  0  0  0
    1.7481  -10.5549   10.2751 H   0  0  0  0  0  0  0  0  0  0  0  0
   -0.8674  -10.5858   12.8140 H   0  0  0  0  0  0  0  0  0  0  0  0
   -0.5507  -12.2511   13.1963 H   0  0  0  0  0  0  0  0  0  0  0  0
   -1.2611  -11.4536   11.6756 H   0  0  0  0  0  0  0  0  0  0  0  0
   -0.0278  -14.5008   11.1591 H   0  0  0  0  0  0  0  0  0  0  0  0
   -0.7009  -13.9618   12.3323 H   0  0  0  0  0  0  0  0  0  0  0  0
   -2.9836  -14.9451   11.4821 H   0  0  0  0  0  0  0  0  0  0  0  0
   -2.1661  -15.5130   10.0563 H   0  0  0  0  0  0  0  0  0  0  0  0
   -4.2608  -14.1729    8.5874 H   0  0  0  0  0  0  0  0  0  0  0  0
   -8.0260  -14.0536    9.0256 H   0  0  0  0  0  0  0  0  0  0  0  0
   -6.7197  -14.6979    7.9173 H   0  0  0  0  0  0  0  0  0  0  0  0
   -8.8401  -16.7574    7.1100 H   0  0  0  0  0  0  0  0  0  0  0  0
   -9.6746  -18.9153    8.5898 H   0  0  0  0  0  0  0  0  0  0  0  0
   -7.5679  -16.5621   11.1099 H   0  0  0  0  0  0  0  0  0  0  0  0
    1.6933  -10.9066   13.4283 H   0  0  0  0  0  0  0  0  0  0  0  0
    3.7270   -8.2071   14.0563 H   0  0  0  0  0  0  0  0  0  0  0  0
    4.9042   -9.6934   13.9793 H   0  0  0  0  0  0  0  0  0  0  0  0
    5.0059   -6.1842   16.1365 H   0  0  0  0  0  0  0  0  0  0  0  0
    8.5838   -6.6799   14.6548 H   0  0  0  0  0  0  0  0  0  0  0  0
  1  2  1  0
  2  3  1  0
  2  4  1  0
  4  5  1  0
  5  6  1  0
  6  7  1  0
  7  8  2  0
  7  9  1  0
  9 10  1  0
 10 11  2  0
 11 12  1  0
 12 13  2  0
 13 14  1  0
  2 15  1  0
 15 16  1  0
 16 17  2  0
 16 18  1  0
 18 19  1  0
 19 20  1  0
 20 21  2  0
 21 22  1  0
 21 23  1  0
 23 24  2  0
 14 10  1  0
 24 19  1  0
  1 25  1  0
  1 26  1  0
  1 27  1  0
  3 28  1  0
  3 29  1  0
  3 30  1  0
  4 31  1  0
  4 32  1  0
  5 33  1  0
  5 34  1  0
  6 35  1  0
  9 36  1  0
  9 37  1  0
 11 38  1  0
 12 39  1  0
 14 40  1  0
 15 41  1  0
 18 42  1  0
 18 43  1  0
 20 44  1  0
 23 45  1  0
M  END
>  <Energy>  (628) 
1264.4492367902612

>  <compound_id>  (628) 
13529

>  <target_id>  (628) 
1

>  <reference_id>  (628) 
112

>  <inspiration_ids>  (628) 
[112, 81]

>  <energy_score>  (628) 
1196.0912124454485

>  <distance_score>  (628) 
9.295718341810488

>  <path>  (628) 
/opt/xchem-fragalysis-2/maxwin/BulkDock/SCRATCH/511016/C13529-P112/C13529-P112.minimised.mol

>  <scratch_subdir>  (628) 
/opt/xchem-fragalysis-2/maxwin/BulkDock/SCRATCH/511016/C13529-P112

>  <fragmenstein_runtime>  (628) 
20.595322608947754

>  <fragmenstein_outcome>  (628) 
too moved

>  <fragmenstein_mode>  (628) 
expansion

>  <fragmenstein_error>  (628) 


$$$$
C13529-P81
     RDKit          3D

 45 46  0  0  0  0  0  0  0  0999 V2000
    2.7643  -12.3955   10.1400 C   0  0  0  0  0  0  0  0  0  0  0  0
    1.5106  -11.9339   11.1021 C   0  0  0  0  0  0  0  0  0  0  0  0
    0.4186  -10.9804   11.0506 C   0  0  0  0  0  0  0  0  0  0  0  0
    0.5294  -13.3485   11.7912 C   0  0  0  0  0  0  0  0  0  0  0  0
    0.1408  -14.8724   11.3845 C   0  0  0  0  0  0  0  0  0  0  0  0
    0.6432  -16.2333   11.1122 N   0  0  0  0  0  0  0  0  0  0  0  0
    0.2512  -17.2168   10.0973 C   0  0  0  0  0  0  0  0  0  0  0  0
   -0.5217  -17.1300    9.1787 O   0  0  0  0  0  0  0  0  0  0  0  0
    0.8867  -18.6296   10.3453 C   0  0  0  0  0  0  0  0  0  0  0  0
   -0.1385  -19.7773   10.2730 C   0  0  0  0  0  0  0  0  0  0  0  0
   -0.2890  -20.9451   11.0089 C   0  0  0  0  0  0  0  0  0  0  0  0
   -1.4924  -21.5347   10.5575 C   0  0  0  0  0  0  0  0  0  0  0  0
   -2.0480  -20.8365    9.5662 N   0  0  0  0  0  0  0  0  0  0  0  0
   -1.2253  -19.7761    9.4217 N   0  0  0  0  0  0  0  0  0  0  0  0
    2.2744  -10.9006   11.9687 N   0  0  0  0  0  0  0  0  0  0  0  0
    3.2055   -9.8989   11.6172 C   0  0  0  0  0  0  0  0  0  0  0  0
    3.5827   -9.5396   10.5382 O   0  0  0  0  0  0  0  0  0  0  0  0
    4.2650   -8.9301   13.2197 C   0  0  0  0  0  0  0  0  0  0  0  0
    5.8696   -7.8216   13.5716 N   0  0  0  0  0  0  0  0  0  0  0  0
    7.3898   -7.3745   12.9317 C   0  0  0  0  0  0  0  0  0  0  0  0
    8.2898   -6.5684   14.5157 C   0  0  0  0  0  0  0  0  0  0  0  0
    9.1548   -4.3735   14.8360 Cl  0  0  0  0  0  0  0  0  0  0  0  0
    7.0736   -6.7289   15.4401 C   0  0  0  0  0  0  0  0  0  0  0  0
    6.4643   -7.7249   14.8374 N   0  0  0  0  0  0  0  0  0  0  0  0
    3.1653  -11.5632    9.5524 H   0  0  0  0  0  0  0  0  0  0  0  0
    3.5957  -12.8079   10.6907 H   0  0  0  0  0  0  0  0  0  0  0  0
    2.6204  -13.1989    9.4315 H   0  0  0  0  0  0  0  0  0  0  0  0
    0.7910  -10.0612   10.5647 H   0  0  0  0  0  0  0  0  0  0  0  0
    0.0055  -10.7910   12.0309 H   0  0  0  0  0  0  0  0  0  0  0  0
   -0.4814  -11.3706   10.5982 H   0  0  0  0  0  0  0  0  0  0  0  0
   -0.4286  -12.9470   11.5675 H   0  0  0  0  0  0  0  0  0  0  0  0
    0.4811  -13.2499   12.8911 H   0  0  0  0  0  0  0  0  0  0  0  0
   -0.8565  -14.8570   10.9400 H   0  0  0  0  0  0  0  0  0  0  0  0
    0.0223  -15.1059   12.4292 H   0  0  0  0  0  0  0  0  0  0  0  0
    1.2564  -16.6780   11.7843 H   0  0  0  0  0  0  0  0  0  0  0  0
    1.6537  -18.7867    9.5790 H   0  0  0  0  0  0  0  0  0  0  0  0
    1.3721  -18.6618   11.3262 H   0  0  0  0  0  0  0  0  0  0  0  0
    0.3530  -21.2970   11.8030 H   0  0  0  0  0  0  0  0  0  0  0  0
   -1.9823  -22.4340   10.9090 H   0  0  0  0  0  0  0  0  0  0  0  0
   -1.4838  -19.0384    8.7715 H   0  0  0  0  0  0  0  0  0  0  0  0
    2.1368  -10.8762   12.9564 H   0  0  0  0  0  0  0  0  0  0  0  0
    3.8576   -8.0377   13.6646 H   0  0  0  0  0  0  0  0  0  0  0  0
    4.6442   -9.7650   13.8335 H   0  0  0  0  0  0  0  0  0  0  0  0
    7.6911   -7.6132   11.9181 H   0  0  0  0  0  0  0  0  0  0  0  0
    6.7676   -6.2927   16.3770 H   0  0  0  0  0  0  0  0  0  0  0  0
  1  2  1  0
  2  3  1  0
  2  4  1  0
  4  5  1  0
  5  6  1  0
  6  7  1  0
  7  8  2  0
  7  9  1  0
  9 10  1  0
 10 11  2  0
 11 12  1  0
 12 13  2  0
 13 14  1  0
  2 15  1  0
 15 16  1  0
 16 17  2  0
 16 18  1  0
 18 19  1  0
 19 20  1  0
 20 21  2  0
 21 22  1  0
 21 23  1  0
 23 24  2  0
 14 10  1  0
 24 19  1  0
  1 25  1  0
  1 26  1  0
  1 27  1  0
  3 28  1  0
  3 29  1  0
  3 30  1  0
  4 31  1  0
  4 32  1  0
  5 33  1  0
  5 34  1  0
  6 35  1  0
  9 36  1  0
  9 37  1  0
 11 38  1  0
 12 39  1  0
 14 40  1  0
 15 41  1  0
 18 42  1  0
 18 43  1  0
 20 44  1  0
 23 45  1  0
M  END
>  <Energy>  (629) 
739.57824666089141

>  <compound_id>  (629) 
13529

>  <target_id>  (629) 
1

>  <reference_id>  (629) 
81

>  <inspiration_ids>  (629) 
[112, 81]

>  <energy_score>  (629) 
671.2202223160771

>  <distance_score>  (629) 
10.893490392541821

>  <path>  (629) 
/opt/xchem-fragalysis-2/maxwin/BulkDock/SCRATCH/511016/C13529-P81/C13529-P81.minimised.mol

>  <scratch_subdir>  (629) 
/opt/xchem-fragalysis-2/maxwin/BulkDock/SCRATCH/511016/C13529-P81

>  <fragmenstein_runtime>  (629) 
38.08545970916748

>  <fragmenstein_outcome>  (629) 
too moved

>  <fragmenstein_mode>  (629) 
expansion

>  <fragmenstein_error>  (629) 


$$$$
C13530-P112
     RDKit          3D

 45 46  0  0  0  0  0  0  0  0999 V2000
    1.0838  -12.2270   13.7218 C   0  0  0  0  0  0  0  0  0  0  0  0
    1.8114  -12.4524   15.5228 C   0  0  0  0  0  0  0  0  0  0  0  0
    3.1179  -11.6263   16.8910 C   0  0  0  0  0  0  0  0  0  0  0  0
    3.5194  -13.2039   18.0643 C   0  0  0  0  0  0  0  0  0  0  0  0
    3.5229  -14.9114   18.2193 N   0  0  0  0  0  0  0  0  0  0  0  0
    2.4494  -15.8681   18.2189 C   0  0  0  0  0  0  0  0  0  0  0  0
    1.2879  -15.7254   18.0323 O   0  0  0  0  0  0  0  0  0  0  0  0
    2.8706  -17.3708   18.5368 C   0  0  0  0  0  0  0  0  0  0  0  0
    1.6711  -18.3549   18.7600 C   0  0  0  0  0  0  0  0  0  0  0  0
    1.4821  -19.6794   18.3804 C   0  0  0  0  0  0  0  0  0  0  0  0
    0.1378  -19.9855   18.6902 C   0  0  0  0  0  0  0  0  0  0  0  0
   -0.4876  -18.9554   19.2611 N   0  0  0  0  0  0  0  0  0  0  0  0
    0.4618  -17.9961   19.3273 N   0  0  0  0  0  0  0  0  0  0  0  0
    3.4065   -9.8082   17.3316 N   0  0  0  0  0  0  0  0  0  0  0  0
    4.6224   -9.0601   18.2635 C   0  0  0  0  0  0  0  0  0  0  0  0
    5.4598   -9.6444   18.8791 O   0  0  0  0  0  0  0  0  0  0  0  0
    4.8457   -7.0521   18.2393 C   0  0  0  0  0  0  0  0  0  0  0  0
    4.6822   -5.2819   18.9080 C   0  0  0  0  0  0  0  0  0  0  0  0
    5.2562   -6.4934   16.7452 N   0  0  0  0  0  0  0  0  0  0  0  0
    6.5051   -6.4802   15.6606 C   0  0  0  0  0  0  0  0  0  0  0  0
    7.2034   -5.3620   15.9810 C   0  0  0  0  0  0  0  0  0  0  0  0
    8.3512   -3.5435   15.3310 Cl  0  0  0  0  0  0  0  0  0  0  0  0
    6.5939   -5.5096   17.2048 C   0  0  0  0  0  0  0  0  0  0  0  0
    5.3404   -5.2705   16.8352 N   0  0  0  0  0  0  0  0  0  0  0  0
    1.1031  -13.1731   13.1503 H   0  0  0  0  0  0  0  0  0  0  0  0
    0.0038  -12.0794   13.4592 H   0  0  0  0  0  0  0  0  0  0  0  0
    1.5575  -11.3724   13.2874 H   0  0  0  0  0  0  0  0  0  0  0  0
    2.4775  -12.7661   14.8303 H   0  0  0  0  0  0  0  0  0  0  0  0
    1.4476  -13.4349   16.0414 H   0  0  0  0  0  0  0  0  0  0  0  0
    3.9290  -11.5490   16.1671 H   0  0  0  0  0  0  0  0  0  0  0  0
    4.1677  -13.7433   17.4535 H   0  0  0  0  0  0  0  0  0  0  0  0
    4.1949  -12.8744   18.8713 H   0  0  0  0  0  0  0  0  0  0  0  0
    4.3795  -15.3765   18.5000 H   0  0  0  0  0  0  0  0  0  0  0  0
    3.4871  -17.4440   19.4301 H   0  0  0  0  0  0  0  0  0  0  0  0
    3.4523  -17.7275   17.6788 H   0  0  0  0  0  0  0  0  0  0  0  0
    2.2003  -20.3159   17.8822 H   0  0  0  0  0  0  0  0  0  0  0  0
   -0.4041  -20.9058   18.5130 H   0  0  0  0  0  0  0  0  0  0  0  0
    0.2008  -17.0782   19.6756 H   0  0  0  0  0  0  0  0  0  0  0  0
    2.8011   -9.1210   16.9981 H   0  0  0  0  0  0  0  0  0  0  0  0
    5.8567   -7.0957   18.6250 H   0  0  0  0  0  0  0  0  0  0  0  0
    3.8532   -5.1095   19.6158 H   0  0  0  0  0  0  0  0  0  0  0  0
    5.5886   -4.8086   19.3166 H   0  0  0  0  0  0  0  0  0  0  0  0
    4.2914   -4.5503   18.1931 H   0  0  0  0  0  0  0  0  0  0  0  0
    6.4447   -7.1311   14.7940 H   0  0  0  0  0  0  0  0  0  0  0  0
    6.7877   -5.3290   18.2287 H   0  0  0  0  0  0  0  0  0  0  0  0
  1  2  1  0
  2  3  1  0
  3  4  1  0
  4  5  1  0
  5  6  1  0
  6  7  2  0
  6  8  1  0
  8  9  1  0
  9 10  2  0
 10 11  1  0
 11 12  2  0
 12 13  1  0
  3 14  1  0
 14 15  1  0
 15 16  2  0
 15 17  1  0
 17 18  1  0
 17 19  1  0
 19 20  1  0
 20 21  2  0
 21 22  1  0
 21 23  1  0
 23 24  2  0
 13  9  1  0
 24 19  1  0
  1 25  1  0
  1 26  1  0
  1 27  1  0
  2 28  1  0
  2 29  1  0
  3 30  1  0
  4 31  1  0
  4 32  1  0
  5 33  1  0
  8 34  1  0
  8 35  1  0
 10 36  1  0
 11 37  1  0
 13 38  1  0
 14 39  1  0
 17 40  1  0
 18 41  1  0
 18 42  1  0
 18 43  1  0
 20 44  1  0
 23 45  1  0
M  END
>  <Energy>  (630) 
876.78802393847513

>  <compound_id>  (630) 
13530

>  <target_id>  (630) 
1

>  <reference_id>  (630) 
112

>  <inspiration_ids>  (630) 
[112, 81]

>  <energy_score>  (630) 
797.4222882767194

>  <distance_score>  (630) 
13.059992835002307

>  <path>  (630) 
/opt/xchem-fragalysis-2/maxwin/BulkDock/SCRATCH/511016/C13530-P112/C13530-P112.minimised.mol

>  <scratch_subdir>  (630) 
/opt/xchem-fragalysis-2/maxwin/BulkDock/SCRATCH/511016/C13530-P112

>  <fragmenstein_runtime>  (630) 
34.19723391532898

>  <fragmenstein_outcome>  (630) 
too moved

>  <fragmenstein_mode>  (630) 
expansion

>  <fragmenstein_error>  (630) 


$$$$
C13530-P81
     RDKit          3D

 45 46  0  0  0  0  0  0  0  0999 V2000
    0.6045  -11.9199   11.4813 C   0  0  0  0  0  0  0  0  0  0  0  0
   -0.1570  -12.9913   12.2237 C   0  0  0  0  0  0  0  0  0  0  0  0
   -0.2766  -13.8395   13.5471 C   0  0  0  0  0  0  0  0  0  0  0  0
   -1.8962  -14.5687   14.7863 C   0  0  0  0  0  0  0  0  0  0  0  0
   -3.1030  -15.9472   14.7851 N   0  0  0  0  0  0  0  0  0  0  0  0
   -4.0094  -16.4370   15.8251 C   0  0  0  0  0  0  0  0  0  0  0  0
   -4.1341  -16.1092   16.9770 O   0  0  0  0  0  0  0  0  0  0  0  0
   -4.8531  -17.5603   15.2485 C   0  0  0  0  0  0  0  0  0  0  0  0
   -5.7172  -17.3254   14.0183 C   0  0  0  0  0  0  0  0  0  0  0  0
   -6.9357  -16.6839   13.8497 C   0  0  0  0  0  0  0  0  0  0  0  0
   -7.2246  -16.7583   12.4731 C   0  0  0  0  0  0  0  0  0  0  0  0
   -6.3509  -17.5297   11.8290 N   0  0  0  0  0  0  0  0  0  0  0  0
   -5.5556  -17.9861   12.8148 N   0  0  0  0  0  0  0  0  0  0  0  0
    1.0353  -12.6600   14.1980 N   0  0  0  0  0  0  0  0  0  0  0  0
    1.7004  -12.4189   15.8164 C   0  0  0  0  0  0  0  0  0  0  0  0
    1.3215  -13.2167   16.6822 O   0  0  0  0  0  0  0  0  0  0  0  0
    2.9341  -10.8817   16.7474 C   0  0  0  0  0  0  0  0  0  0  0  0
    1.7983   -9.5872   17.8097 C   0  0  0  0  0  0  0  0  0  0  0  0
    3.5382   -9.4531   17.8508 N   0  0  0  0  0  0  0  0  0  0  0  0
    3.1941   -8.0610   17.8653 C   0  0  0  0  0  0  0  0  0  0  0  0
    4.5412   -7.0839   17.8490 C   0  0  0  0  0  0  0  0  0  0  0  0
    5.3780   -6.0782   16.9617 Cl  0  0  0  0  0  0  0  0  0  0  0  0
    5.1794   -7.7966   18.6048 C   0  0  0  0  0  0  0  0  0  0  0  0
    4.7853   -9.1379   18.4776 N   0  0  0  0  0  0  0  0  0  0  0  0
    1.4235  -12.3243   10.8995 H   0  0  0  0  0  0  0  0  0  0  0  0
    1.0569  -11.0841   11.9851 H   0  0  0  0  0  0  0  0  0  0  0  0
   -0.1416  -11.4139   10.8907 H   0  0  0  0  0  0  0  0  0  0  0  0
   -0.5601  -13.6332   11.4455 H   0  0  0  0  0  0  0  0  0  0  0  0
   -0.6077  -12.1284   12.6997 H   0  0  0  0  0  0  0  0  0  0  0  0
    0.2573  -14.7126   13.1760 H   0  0  0  0  0  0  0  0  0  0  0  0
   -1.8542  -14.3019   15.8752 H   0  0  0  0  0  0  0  0  0  0  0  0
   -2.7966  -14.3330   14.1377 H   0  0  0  0  0  0  0  0  0  0  0  0
   -3.3316  -16.3861   13.9244 H   0  0  0  0  0  0  0  0  0  0  0  0
   -5.5200  -17.8369   16.0708 H   0  0  0  0  0  0  0  0  0  0  0  0
   -4.1288  -18.3574   15.0650 H   0  0  0  0  0  0  0  0  0  0  0  0
   -7.5196  -16.1858   14.6126 H   0  0  0  0  0  0  0  0  0  0  0  0
   -8.0484  -16.3169   11.9283 H   0  0  0  0  0  0  0  0  0  0  0  0
   -4.9492  -18.7724   12.5956 H   0  0  0  0  0  0  0  0  0  0  0  0
    1.3486  -11.9164   13.6398 H   0  0  0  0  0  0  0  0  0  0  0  0
    3.4537  -11.5578   17.4192 H   0  0  0  0  0  0  0  0  0  0  0  0
    0.7432   -9.4046   17.8104 H   0  0  0  0  0  0  0  0  0  0  0  0
    1.9780   -9.4291   18.9087 H   0  0  0  0  0  0  0  0  0  0  0  0
    1.4054   -8.5894   17.4189 H   0  0  0  0  0  0  0  0  0  0  0  0
    2.8050   -8.3057   16.8790 H   0  0  0  0  0  0  0  0  0  0  0  0
    6.1042   -7.3585   19.0104 H   0  0  0  0  0  0  0  0  0  0  0  0
  1  2  1  0
  2  3  1  0
  3  4  1  0
  4  5  1  0
  5  6  1  0
  6  7  2  0
  6  8  1  0
  8  9  1  0
  9 10  2  0
 10 11  1  0
 11 12  2  0
 12 13  1  0
  3 14  1  0
 14 15  1  0
 15 16  2  0
 15 17  1  0
 17 18  1  0
 17 19  1  0
 19 20  1  0
 20 21  2  0
 21 22  1  0
 21 23  1  0
 23 24  2  0
 13  9  1  0
 24 19  1  0
  1 25  1  0
  1 26  1  0
  1 27  1  0
  2 28  1  0
  2 29  1  0
  3 30  1  0
  4 31  1  0
  4 32  1  0
  5 33  1  0
  8 34  1  0
  8 35  1  0
 10 36  1  0
 11 37  1  0
 13 38  1  0
 14 39  1  0
 17 40  1  0
 18 41  1  0
 18 42  1  0
 18 43  1  0
 20 44  1  0
 23 45  1  0
M  END
>  <Energy>  (631) 
1086.1554108101041

>  <compound_id>  (631) 
13530

>  <target_id>  (631) 
1

>  <reference_id>  (631) 
81

>  <inspiration_ids>  (631) 
[112, 81]

>  <energy_score>  (631) 
1006.7896751483499

>  <distance_score>  (631) 
10.482433210596472

>  <path>  (631) 
/opt/xchem-fragalysis-2/maxwin/BulkDock/SCRATCH/511016/C13530-P81/C13530-P81.minimised.mol

>  <scratch_subdir>  (631) 
/opt/xchem-fragalysis-2/maxwin/BulkDock/SCRATCH/511016/C13530-P81

>  <fragmenstein_runtime>  (631) 
25.775341749191284

>  <fragmenstein_outcome>  (631) 
too moved

>  <fragmenstein_mode>  (631) 
expansion

>  <fragmenstein_error>  (631) 


$$$$
C13531-P112
     RDKit          3D

 39 40  0  0  0  0  0  0  0  0999 V2000
    5.8354  -18.1225   13.5470 C   0  0  0  0  0  0  0  0  0  0  0  0
    4.6898  -18.1033   12.5498 C   0  0  0  0  0  0  0  0  0  0  0  0
    4.5092  -16.9122   11.5091 C   0  0  0  0  0  0  0  0  0  0  0  0
    3.1854  -17.1864   10.6081 C   0  0  0  0  0  0  0  0  0  0  0  0
    2.4039  -18.3941   10.9856 N   0  0  0  0  0  0  0  0  0  0  0  0
    2.5568  -19.7748   10.6068 C   0  0  0  0  0  0  0  0  0  0  0  0
    3.3998  -20.3132    9.9535 O   0  0  0  0  0  0  0  0  0  0  0  0
    1.5147  -20.6627   11.1758 C   0  0  0  0  0  0  0  0  0  0  0  0
    0.9703  -20.6356   12.4460 N   0  0  0  0  0  0  0  0  0  0  0  0
    0.0752  -21.6286   12.6970 N   0  0  0  0  0  0  0  0  0  0  0  0
    0.1037  -22.3664   11.5882 C   0  0  0  0  0  0  0  0  0  0  0  0
    0.9535  -21.8074   10.6143 C   0  0  0  0  0  0  0  0  0  0  0  0
    1.1957  -22.4682    9.0685 Cl  0  0  0  0  0  0  0  0  0  0  0  0
    5.2678  -15.3594   12.2506 N   0  0  0  0  0  0  0  0  0  0  0  0
    6.1434  -13.9889   11.4790 C   0  0  0  0  0  0  0  0  0  0  0  0
    6.2927  -13.8481   10.2857 O   0  0  0  0  0  0  0  0  0  0  0  0
    6.6988  -12.6702   12.8542 C   0  0  0  0  0  0  0  0  0  0  0  0
    7.4769  -10.8865   12.6275 C   0  0  0  0  0  0  0  0  0  0  0  0
    8.3411  -10.3276   11.5854 C   0  0  0  0  0  0  0  0  0  0  0  0
    8.3154   -8.9608   11.8272 C   0  0  0  0  0  0  0  0  0  0  0  0
    7.8236   -8.7225   13.0675 N   0  0  0  0  0  0  0  0  0  0  0  0
    7.7507   -9.9595   13.5802 N   0  0  0  0  0  0  0  0  0  0  0  0
    5.7849  -17.2792   14.2379 H   0  0  0  0  0  0  0  0  0  0  0  0
    5.7677  -19.0302   14.1582 H   0  0  0  0  0  0  0  0  0  0  0  0
    6.8083  -18.1559   13.0522 H   0  0  0  0  0  0  0  0  0  0  0  0
    3.7858  -18.2178   13.1488 H   0  0  0  0  0  0  0  0  0  0  0  0
    4.7852  -19.0282   11.9685 H   0  0  0  0  0  0  0  0  0  0  0  0
    5.2324  -17.1129   10.6918 H   0  0  0  0  0  0  0  0  0  0  0  0
    2.4601  -16.3880   10.4719 H   0  0  0  0  0  0  0  0  0  0  0  0
    3.5435  -17.3988    9.5909 H   0  0  0  0  0  0  0  0  0  0  0  0
    1.5246  -18.2811   11.4742 H   0  0  0  0  0  0  0  0  0  0  0  0
    1.1849  -19.9943   13.2079 H   0  0  0  0  0  0  0  0  0  0  0  0
   -0.5047  -23.2593   11.5250 H   0  0  0  0  0  0  0  0  0  0  0  0
    5.3646  -15.2923   13.2339 H   0  0  0  0  0  0  0  0  0  0  0  0
    5.8120  -12.1773   13.3118 H   0  0  0  0  0  0  0  0  0  0  0  0
    7.0308  -13.1861   13.7372 H   0  0  0  0  0  0  0  0  0  0  0  0
    8.6984  -10.8154   10.6884 H   0  0  0  0  0  0  0  0  0  0  0  0
    8.5754   -8.1423   11.1653 H   0  0  0  0  0  0  0  0  0  0  0  0
    7.9133  -10.1575   14.5622 H   0  0  0  0  0  0  0  0  0  0  0  0
  1  2  1  0
  2  3  1  0
  3  4  1  0
  4  5  1  0
  5  6  1  0
  6  7  2  0
  6  8  1  0
  8  9  1  0
  9 10  1  0
 10 11  2  0
 11 12  1  0
 12 13  1  0
  3 14  1  0
 14 15  1  0
 15 16  2  0
 15 17  1  0
 17 18  1  0
 18 19  2  0
 19 20  1  0
 20 21  2  0
 21 22  1  0
 12  8  2  0
 22 18  1  0
  1 23  1  0
  1 24  1  0
  1 25  1  0
  2 26  1  0
  2 27  1  0
  3 28  1  0
  4 29  1  0
  4 30  1  0
  5 31  1  0
  9 32  1  0
 11 33  1  0
 14 34  1  0
 17 35  1  0
 17 36  1  0
 19 37  1  0
 20 38  1  0
 22 39  1  0
M  END
>  <Energy>  (632) 
248.06979353753323

>  <compound_id>  (632) 
13531

>  <target_id>  (632) 
1

>  <reference_id>  (632) 
112

>  <inspiration_ids>  (632) 
[112, 81]

>  <energy_score>  (632) 
235.95141127975967

>  <distance_score>  (632) 
12.336608919825656

>  <path>  (632) 
/opt/xchem-fragalysis-2/maxwin/BulkDock/SCRATCH/511016/C13531-P112/C13531-P112.minimised.mol

>  <scratch_subdir>  (632) 
/opt/xchem-fragalysis-2/maxwin/BulkDock/SCRATCH/511016/C13531-P112

>  <fragmenstein_runtime>  (632) 
19.512284517288208

>  <fragmenstein_outcome>  (632) 
too moved

>  <fragmenstein_mode>  (632) 
expansion

>  <fragmenstein_error>  (632) 


$$$$
C13531-P81
     RDKit          3D

 39 40  0  0  0  0  0  0  0  0999 V2000
    1.7059  -12.6703   15.0081 C   0  0  0  0  0  0  0  0  0  0  0  0
    0.7941  -12.3748   13.5620 C   0  0  0  0  0  0  0  0  0  0  0  0
    0.8929  -11.5116   11.9186 C   0  0  0  0  0  0  0  0  0  0  0  0
    0.2758  -13.4117   11.7871 C   0  0  0  0  0  0  0  0  0  0  0  0
   -0.2864  -14.6762   10.8776 N   0  0  0  0  0  0  0  0  0  0  0  0
    0.4506  -15.9104   10.2999 C   0  0  0  0  0  0  0  0  0  0  0  0
    1.5844  -16.2780   10.4536 O   0  0  0  0  0  0  0  0  0  0  0  0
   -0.2534  -16.8074    9.2614 C   0  0  0  0  0  0  0  0  0  0  0  0
    0.5725  -17.7490    8.6364 N   0  0  0  0  0  0  0  0  0  0  0  0
    0.1144  -18.3186    7.5028 N   0  0  0  0  0  0  0  0  0  0  0  0
   -1.1240  -17.8457    7.4003 C   0  0  0  0  0  0  0  0  0  0  0  0
   -1.4384  -16.9290    8.4381 C   0  0  0  0  0  0  0  0  0  0  0  0
   -3.0347  -16.2811    8.5521 Cl  0  0  0  0  0  0  0  0  0  0  0  0
    2.7394  -11.0039   11.9029 N   0  0  0  0  0  0  0  0  0  0  0  0
    3.9574  -10.7281   13.3391 C   0  0  0  0  0  0  0  0  0  0  0  0
    3.6152  -10.7337   14.4735 O   0  0  0  0  0  0  0  0  0  0  0  0
    5.5733  -10.6604   13.2815 C   0  0  0  0  0  0  0  0  0  0  0  0
    7.3577  -10.3900   12.9262 C   0  0  0  0  0  0  0  0  0  0  0  0
    8.2333  -10.3324   11.7695 C   0  0  0  0  0  0  0  0  0  0  0  0
    9.5604  -10.5934   12.1761 C   0  0  0  0  0  0  0  0  0  0  0  0
    9.5915  -10.7323   13.5115 N   0  0  0  0  0  0  0  0  0  0  0  0
    8.3246  -10.4109   13.9358 N   0  0  0  0  0  0  0  0  0  0  0  0
    1.4512  -13.4012   15.8704 H   0  0  0  0  0  0  0  0  0  0  0  0
    2.6586  -12.2429   15.2658 H   0  0  0  0  0  0  0  0  0  0  0  0
    1.4030  -12.0384   15.6814 H   0  0  0  0  0  0  0  0  0  0  0  0
   -0.2808  -12.2641   13.6531 H   0  0  0  0  0  0  0  0  0  0  0  0
    1.4983  -11.6155   13.6898 H   0  0  0  0  0  0  0  0  0  0  0  0
    0.1193  -10.7763   11.8215 H   0  0  0  0  0  0  0  0  0  0  0  0
    1.1806  -13.5071   11.2710 H   0  0  0  0  0  0  0  0  0  0  0  0
    0.4043  -14.0276   12.6839 H   0  0  0  0  0  0  0  0  0  0  0  0
   -1.2615  -14.7137   10.6121 H   0  0  0  0  0  0  0  0  0  0  0  0
    1.5203  -17.9535    8.9325 H   0  0  0  0  0  0  0  0  0  0  0  0
   -1.7595  -18.1959    6.5992 H   0  0  0  0  0  0  0  0  0  0  0  0
    3.2243  -10.8762   11.0202 H   0  0  0  0  0  0  0  0  0  0  0  0
    5.2721  -10.8574   12.3043 H   0  0  0  0  0  0  0  0  0  0  0  0
    5.7001  -11.6814   13.6582 H   0  0  0  0  0  0  0  0  0  0  0  0
    7.9935  -10.2977   10.7140 H   0  0  0  0  0  0  0  0  0  0  0  0
   10.4572  -10.7341   11.5856 H   0  0  0  0  0  0  0  0  0  0  0  0
    8.1269  -10.5806   14.9139 H   0  0  0  0  0  0  0  0  0  0  0  0
  1  2  1  0
  2  3  1  0
  3  4  1  0
  4  5  1  0
  5  6  1  0
  6  7  2  0
  6  8  1  0
  8  9  1  0
  9 10  1  0
 10 11  2  0
 11 12  1  0
 12 13  1  0
  3 14  1  0
 14 15  1  0
 15 16  2  0
 15 17  1  0
 17 18  1  0
 18 19  2  0
 19 20  1  0
 20 21  2  0
 21 22  1  0
 12  8  2  0
 22 18  1  0
  1 23  1  0
  1 24  1  0
  1 25  1  0
  2 26  1  0
  2 27  1  0
  3 28  1  0
  4 29  1  0
  4 30  1  0
  5 31  1  0
  9 32  1  0
 11 33  1  0
 14 34  1  0
 17 35  1  0
 17 36  1  0
 19 37  1  0
 20 38  1  0
 22 39  1  0
M  END
>  <Energy>  (633) 
620.68487649680446

>  <compound_id>  (633) 
13531

>  <target_id>  (633) 
1

>  <reference_id>  (633) 
81

>  <inspiration_ids>  (633) 
[112, 81]

>  <energy_score>  (633) 
608.5664942390434

>  <distance_score>  (633) 
13.190136065061226

>  <path>  (633) 
/opt/xchem-fragalysis-2/maxwin/BulkDock/SCRATCH/511016/C13531-P81/C13531-P81.minimised.mol

>  <scratch_subdir>  (633) 
/opt/xchem-fragalysis-2/maxwin/BulkDock/SCRATCH/511016/C13531-P81

>  <fragmenstein_runtime>  (633) 
16.182913303375244

>  <fragmenstein_outcome>  (633) 
too moved

>  <fragmenstein_mode>  (633) 
expansion

>  <fragmenstein_error>  (633) 


$$$$
C13532-P112
     RDKit          3D

 39 40  0  0  0  0  0  0  0  0999 V2000
   -2.7328  -11.5380   19.2409 C   0  0  0  0  0  0  0  0  0  0  0  0
   -2.7131  -12.7808   20.1173 C   0  0  0  0  0  0  0  0  0  0  0  0
   -2.0979  -14.0379   19.4954 N   0  0  0  0  0  0  0  0  0  0  0  0
   -1.2517  -13.8618   17.7513 C   0  0  0  0  0  0  0  0  0  0  0  0
    0.6071  -13.7137   17.0495 C   0  0  0  0  0  0  0  0  0  0  0  0
    1.7315  -12.5944   15.8437 N   0  0  0  0  0  0  0  0  0  0  0  0
    3.2579  -11.5405   16.1941 C   0  0  0  0  0  0  0  0  0  0  0  0
    3.6754  -11.3734   17.2772 O   0  0  0  0  0  0  0  0  0  0  0  0
    4.2408  -10.8332   14.6635 C   0  0  0  0  0  0  0  0  0  0  0  0
    5.6038   -9.8291   14.0674 C   0  0  0  0  0  0  0  0  0  0  0  0
    6.2401   -8.1199   14.0717 C   0  0  0  0  0  0  0  0  0  0  0  0
    7.5904   -8.2206   13.8596 C   0  0  0  0  0  0  0  0  0  0  0  0
    7.9896   -9.4765   13.6825 N   0  0  0  0  0  0  0  0  0  0  0  0
    6.8623  -10.3229   13.6072 N   0  0  0  0  0  0  0  0  0  0  0  0
   -2.2857  -15.4449   20.5267 C   0  0  0  0  0  0  0  0  0  0  0  0
   -3.2857  -16.1676   20.4125 O   0  0  0  0  0  0  0  0  0  0  0  0
   -1.4672  -15.8985   21.6881 C   0  0  0  0  0  0  0  0  0  0  0  0
   -0.1346  -16.1078   21.9346 N   0  0  0  0  0  0  0  0  0  0  0  0
    0.1287  -16.8775   23.0061 N   0  0  0  0  0  0  0  0  0  0  0  0
   -1.0675  -17.1000   23.5420 C   0  0  0  0  0  0  0  0  0  0  0  0
   -2.0805  -16.4772   22.8119 C   0  0  0  0  0  0  0  0  0  0  0  0
   -3.7156  -16.5163   23.2893 Cl  0  0  0  0  0  0  0  0  0  0  0  0
   -1.7628  -11.3493   18.7808 H   0  0  0  0  0  0  0  0  0  0  0  0
   -3.4733  -11.6057   18.4443 H   0  0  0  0  0  0  0  0  0  0  0  0
   -2.9897  -10.6624   19.8463 H   0  0  0  0  0  0  0  0  0  0  0  0
   -2.0510  -12.5647   20.9643 H   0  0  0  0  0  0  0  0  0  0  0  0
   -3.6708  -12.9399   20.6206 H   0  0  0  0  0  0  0  0  0  0  0  0
   -2.0437  -13.6491   17.0473 H   0  0  0  0  0  0  0  0  0  0  0  0
   -1.0542  -14.8696   17.9018 H   0  0  0  0  0  0  0  0  0  0  0  0
    1.3569  -14.3548   17.5313 H   0  0  0  0  0  0  0  0  0  0  0  0
    0.2090  -14.1850   16.2021 H   0  0  0  0  0  0  0  0  0  0  0  0
    1.4998  -12.5345   14.8577 H   0  0  0  0  0  0  0  0  0  0  0  0
    3.5388  -10.3372   14.0272 H   0  0  0  0  0  0  0  0  0  0  0  0
    4.7690  -11.7245   14.3249 H   0  0  0  0  0  0  0  0  0  0  0  0
    5.6311   -7.2180   13.9690 H   0  0  0  0  0  0  0  0  0  0  0  0
    8.2305   -7.3784   13.9638 H   0  0  0  0  0  0  0  0  0  0  0  0
    7.0687  -11.3167   13.5641 H   0  0  0  0  0  0  0  0  0  0  0  0
    0.6599  -15.8948   21.3430 H   0  0  0  0  0  0  0  0  0  0  0  0
   -1.1413  -17.6845   24.4498 H   0  0  0  0  0  0  0  0  0  0  0  0
  1  2  1  0
  2  3  1  0
  3  4  1  0
  4  5  1  0
  5  6  1  0
  6  7  1  0
  7  8  2  0
  7  9  1  0
  9 10  1  0
 10 11  2  0
 11 12  1  0
 12 13  2  0
 13 14  1  0
  3 15  1  0
 15 16  2  0
 15 17  1  0
 17 18  1  0
 18 19  1  0
 19 20  2  0
 20 21  1  0
 21 22  1  0
 14 10  1  0
 21 17  2  0
  1 23  1  0
  1 24  1  0
  1 25  1  0
  2 26  1  0
  2 27  1  0
  4 28  1  0
  4 29  1  0
  5 30  1  0
  5 31  1  0
  6 32  1  0
  9 33  1  0
  9 34  1  0
 11 35  1  0
 12 36  1  0
 14 37  1  0
 18 38  1  0
 20 39  1  0
M  END
>  <Energy>  (634) 
591.36898202277109

>  <compound_id>  (634) 
13532

>  <target_id>  (634) 
1

>  <reference_id>  (634) 
112

>  <inspiration_ids>  (634) 
[112, 81]

>  <energy_score>  (634) 
562.5278574928041

>  <distance_score>  (634) 
14.009850320270731

>  <path>  (634) 
/opt/xchem-fragalysis-2/maxwin/BulkDock/SCRATCH/511016/C13532-P112/C13532-P112.minimised.mol

>  <scratch_subdir>  (634) 
/opt/xchem-fragalysis-2/maxwin/BulkDock/SCRATCH/511016/C13532-P112

>  <fragmenstein_runtime>  (634) 
18.417521715164185

>  <fragmenstein_outcome>  (634) 
too moved

>  <fragmenstein_mode>  (634) 
expansion

>  <fragmenstein_error>  (634) 


$$$$
C13532-P81
     RDKit          3D

 39 40  0  0  0  0  0  0  0  0999 V2000
   -2.5140  -16.3801    6.7863 C   0  0  0  0  0  0  0  0  0  0  0  0
   -2.4345  -16.5560    8.3027 C   0  0  0  0  0  0  0  0  0  0  0  0
   -2.9116  -15.4596    9.2001 N   0  0  0  0  0  0  0  0  0  0  0  0
   -1.8599  -14.9151   10.5013 C   0  0  0  0  0  0  0  0  0  0  0  0
   -0.2400  -14.3038   11.2545 C   0  0  0  0  0  0  0  0  0  0  0  0
    0.4489  -12.7773   11.3475 N   0  0  0  0  0  0  0  0  0  0  0  0
    1.9129  -12.2066   10.7532 C   0  0  0  0  0  0  0  0  0  0  0  0
    2.8115  -12.7960   10.1571 O   0  0  0  0  0  0  0  0  0  0  0  0
    2.0905  -10.6864   10.9867 C   0  0  0  0  0  0  0  0  0  0  0  0
    2.6802   -9.7312    9.9368 C   0  0  0  0  0  0  0  0  0  0  0  0
    2.6799   -8.3433    9.8696 C   0  0  0  0  0  0  0  0  0  0  0  0
    3.4819   -8.0089    8.7675 C   0  0  0  0  0  0  0  0  0  0  0  0
    3.9278   -9.0945    8.1369 N   0  0  0  0  0  0  0  0  0  0  0  0
    3.4456  -10.1192    8.8709 N   0  0  0  0  0  0  0  0  0  0  0  0
   -4.2519  -14.9918    8.8338 C   0  0  0  0  0  0  0  0  0  0  0  0
   -4.4126  -14.0721    8.0317 O   0  0  0  0  0  0  0  0  0  0  0  0
   -5.5047  -15.6289    9.2675 C   0  0  0  0  0  0  0  0  0  0  0  0
   -6.2658  -15.3877   10.3918 N   0  0  0  0  0  0  0  0  0  0  0  0
   -7.3855  -16.1357   10.5051 N   0  0  0  0  0  0  0  0  0  0  0  0
   -7.4927  -16.6887    9.2962 C   0  0  0  0  0  0  0  0  0  0  0  0
   -6.3879  -16.3641    8.4788 C   0  0  0  0  0  0  0  0  0  0  0  0
   -6.2392  -16.7664    6.8373 Cl  0  0  0  0  0  0  0  0  0  0  0  0
   -3.4622  -15.9575    6.4520 H   0  0  0  0  0  0  0  0  0  0  0  0
   -2.3973  -17.3562    6.3020 H   0  0  0  0  0  0  0  0  0  0  0  0
   -1.7056  -15.7511    6.4063 H   0  0  0  0  0  0  0  0  0  0  0  0
   -3.0999  -17.3952    8.5384 H   0  0  0  0  0  0  0  0  0  0  0  0
   -1.4170  -16.8548    8.5479 H   0  0  0  0  0  0  0  0  0  0  0  0
   -1.2156  -15.7832   10.3536 H   0  0  0  0  0  0  0  0  0  0  0  0
   -2.6074  -14.8269   11.2580 H   0  0  0  0  0  0  0  0  0  0  0  0
    0.5177  -15.0384   10.9396 H   0  0  0  0  0  0  0  0  0  0  0  0
   -0.2307  -14.5172   12.3164 H   0  0  0  0  0  0  0  0  0  0  0  0
   -0.0965  -12.0043   11.7157 H   0  0  0  0  0  0  0  0  0  0  0  0
    1.1222  -10.3672   11.3149 H   0  0  0  0  0  0  0  0  0  0  0  0
    2.8188  -10.6258   11.7704 H   0  0  0  0  0  0  0  0  0  0  0  0
    2.1880   -7.6551   10.5396 H   0  0  0  0  0  0  0  0  0  0  0  0
    3.7460   -7.0300    8.3897 H   0  0  0  0  0  0  0  0  0  0  0  0
    3.6840  -11.0688    8.5989 H   0  0  0  0  0  0  0  0  0  0  0  0
   -6.0140  -14.7476   11.1433 H   0  0  0  0  0  0  0  0  0  0  0  0
   -8.3651  -17.2821    9.0591 H   0  0  0  0  0  0  0  0  0  0  0  0
  1  2  1  0
  2  3  1  0
  3  4  1  0
  4  5  1  0
  5  6  1  0
  6  7  1  0
  7  8  2  0
  7  9  1  0
  9 10  1  0
 10 11  2  0
 11 12  1  0
 12 13  2  0
 13 14  1  0
  3 15  1  0
 15 16  2  0
 15 17  1  0
 17 18  1  0
 18 19  1  0
 19 20  2  0
 20 21  1  0
 21 22  1  0
 14 10  1  0
 21 17  2  0
  1 23  1  0
  1 24  1  0
  1 25  1  0
  2 26  1  0
  2 27  1  0
  4 28  1  0
  4 29  1  0
  5 30  1  0
  5 31  1  0
  6 32  1  0
  9 33  1  0
  9 34  1  0
 11 35  1  0
 12 36  1  0
 14 37  1  0
 18 38  1  0
 20 39  1  0
M  END
>  <Energy>  (635) 
218.17733735330211

>  <compound_id>  (635) 
13532

>  <target_id>  (635) 
1

>  <reference_id>  (635) 
81

>  <inspiration_ids>  (635) 
[112, 81]

>  <energy_score>  (635) 
189.33621282333291

>  <distance_score>  (635) 
12.432154069596463

>  <path>  (635) 
/opt/xchem-fragalysis-2/maxwin/BulkDock/SCRATCH/511016/C13532-P81/C13532-P81.minimised.mol

>  <scratch_subdir>  (635) 
/opt/xchem-fragalysis-2/maxwin/BulkDock/SCRATCH/511016/C13532-P81

>  <fragmenstein_runtime>  (635) 
18.525426387786865

>  <fragmenstein_outcome>  (635) 
too moved

>  <fragmenstein_mode>  (635) 
expansion

>  <fragmenstein_error>  (635) 


$$$$
C13533-P112
     RDKit          3D

 39 40  0  0  0  0  0  0  0  0999 V2000
    1.9974  -16.2815    9.6842 C   0  0  0  0  0  0  0  0  0  0  0  0
    1.0665  -16.5339   10.9023 C   0  0  0  0  0  0  0  0  0  0  0  0
    0.9078  -15.1645   12.1103 C   0  0  0  0  0  0  0  0  0  0  0  0
    2.2035  -14.0330   12.6411 N   0  0  0  0  0  0  0  0  0  0  0  0
    3.3706  -15.9100   12.7803 C   0  0  0  0  0  0  0  0  0  0  0  0
    2.4134  -12.9322   14.3528 C   0  0  0  0  0  0  0  0  0  0  0  0
    1.7204  -12.9462   15.3582 O   0  0  0  0  0  0  0  0  0  0  0  0
    4.2026  -11.5939   14.6709 C   0  0  0  0  0  0  0  0  0  0  0  0
    5.3185  -10.0461   13.9525 C   0  0  0  0  0  0  0  0  0  0  0  0
    7.0144   -9.2535   13.8259 C   0  0  0  0  0  0  0  0  0  0  0  0
    6.8202   -7.6947   13.9055 C   0  0  0  0  0  0  0  0  0  0  0  0
    5.5335   -7.3213   13.7206 N   0  0  0  0  0  0  0  0  0  0  0  0
    4.6446   -8.5997   13.7605 N   0  0  0  0  0  0  0  0  0  0  0  0
    1.2707  -18.0683   10.9650 N   0  0  0  0  0  0  0  0  0  0  0  0
    1.0842  -19.0075   12.0401 C   0  0  0  0  0  0  0  0  0  0  0  0
    0.7994  -18.8320   13.1859 O   0  0  0  0  0  0  0  0  0  0  0  0
    1.1691  -20.4184   11.6073 C   0  0  0  0  0  0  0  0  0  0  0  0
    0.7079  -20.9276   10.4088 N   0  0  0  0  0  0  0  0  0  0  0  0
    0.4394  -22.2496   10.4260 N   0  0  0  0  0  0  0  0  0  0  0  0
    0.9086  -22.6375   11.6131 C   0  0  0  0  0  0  0  0  0  0  0  0
    1.4361  -21.5590   12.3512 C   0  0  0  0  0  0  0  0  0  0  0  0
    2.2157  -21.7146   13.8492 Cl  0  0  0  0  0  0  0  0  0  0  0  0
    1.4690  -16.5058    8.7500 H   0  0  0  0  0  0  0  0  0  0  0  0
    2.8806  -16.9351    9.6940 H   0  0  0  0  0  0  0  0  0  0  0  0
    2.4087  -15.2938    9.6142 H   0  0  0  0  0  0  0  0  0  0  0  0
    0.0427  -16.5005   10.5130 H   0  0  0  0  0  0  0  0  0  0  0  0
    0.6712  -14.4176   11.3757 H   0  0  0  0  0  0  0  0  0  0  0  0
   -0.0857  -14.8937   12.4592 H   0  0  0  0  0  0  0  0  0  0  0  0
    3.2940  -16.7004   11.8650 H   0  0  0  0  0  0  0  0  0  0  0  0
    4.4572  -15.7740   12.3865 H   0  0  0  0  0  0  0  0  0  0  0  0
    3.6673  -16.7362   13.7326 H   0  0  0  0  0  0  0  0  0  0  0  0
    5.0571  -12.1732   14.3295 H   0  0  0  0  0  0  0  0  0  0  0  0
    4.0161  -11.2478   15.6817 H   0  0  0  0  0  0  0  0  0  0  0  0
    7.9617   -9.6692   14.2549 H   0  0  0  0  0  0  0  0  0  0  0  0
    7.5929   -6.9640   14.0805 H   0  0  0  0  0  0  0  0  0  0  0  0
    3.6584   -8.4892   13.6125 H   0  0  0  0  0  0  0  0  0  0  0  0
    1.4245  -18.5763   10.1073 H   0  0  0  0  0  0  0  0  0  0  0  0
    0.3677  -20.3929    9.6133 H   0  0  0  0  0  0  0  0  0  0  0  0
    0.8699  -23.6845   11.8837 H   0  0  0  0  0  0  0  0  0  0  0  0
  1  2  1  0
  2  3  1  0
  3  4  1  0
  4  5  1  0
  4  6  1  0
  6  7  2  0
  6  8  1  0
  8  9  1  0
  9 10  2  0
 10 11  1  0
 11 12  2  0
 12 13  1  0
  2 14  1  0
 14 15  1  0
 15 16  2  0
 15 17  1  0
 17 18  1  0
 18 19  1  0
 19 20  2  0
 20 21  1  0
 21 22  1  0
 13  9  1  0
 21 17  2  0
  1 23  1  0
  1 24  1  0
  1 25  1  0
  2 26  1  0
  3 27  1  0
  3 28  1  0
  5 29  1  0
  5 30  1  0
  5 31  1  0
  8 32  1  0
  8 33  1  0
 10 34  1  0
 11 35  1  0
 13 36  1  0
 14 37  1  0
 18 38  1  0
 20 39  1  0
M  END
>  <Energy>  (636) 
953.26806559241356

>  <compound_id>  (636) 
13533

>  <target_id>  (636) 
1

>  <reference_id>  (636) 
112

>  <inspiration_ids>  (636) 
[112, 81]

>  <energy_score>  (636) 
915.5540181388166

>  <distance_score>  (636) 
12.128802304247637

>  <path>  (636) 
/opt/xchem-fragalysis-2/maxwin/BulkDock/SCRATCH/511016/C13533-P112/C13533-P112.minimised.mol

>  <scratch_subdir>  (636) 
/opt/xchem-fragalysis-2/maxwin/BulkDock/SCRATCH/511016/C13533-P112

>  <fragmenstein_runtime>  (636) 
38.334789752960205

>  <fragmenstein_outcome>  (636) 
too moved

>  <fragmenstein_mode>  (636) 
expansion

>  <fragmenstein_error>  (636) 


$$$$
C13533-P81
     RDKit          3D

 39 40  0  0  0  0  0  0  0  0999 V2000
   -1.1335  -12.2626   18.1158 C   0  0  0  0  0  0  0  0  0  0  0  0
    0.2532  -13.5228   17.8276 C   0  0  0  0  0  0  0  0  0  0  0  0
    2.3168  -13.9836   18.2036 C   0  0  0  0  0  0  0  0  0  0  0  0
    3.7281  -12.8368   19.0719 N   0  0  0  0  0  0  0  0  0  0  0  0
    3.7088  -12.2334   17.7931 C   0  0  0  0  0  0  0  0  0  0  0  0
    5.1434  -13.1423   19.5055 C   0  0  0  0  0  0  0  0  0  0  0  0
    5.8052  -14.1260   19.3512 O   0  0  0  0  0  0  0  0  0  0  0  0
    5.8444  -12.0252   20.4215 C   0  0  0  0  0  0  0  0  0  0  0  0
    6.7469  -10.8265   20.1007 C   0  0  0  0  0  0  0  0  0  0  0  0
    6.5164   -9.4973   19.7767 C   0  0  0  0  0  0  0  0  0  0  0  0
    7.6387   -8.7996   20.2472 C   0  0  0  0  0  0  0  0  0  0  0  0
    8.6368   -9.6126   20.5703 N   0  0  0  0  0  0  0  0  0  0  0  0
    8.0850  -10.8351   20.4546 N   0  0  0  0  0  0  0  0  0  0  0  0
   -1.4509  -14.5318   18.0451 N   0  0  0  0  0  0  0  0  0  0  0  0
   -2.6088  -14.9730   16.9133 C   0  0  0  0  0  0  0  0  0  0  0  0
   -2.6747  -14.6892   15.7619 O   0  0  0  0  0  0  0  0  0  0  0  0
   -3.8879  -16.1612   17.4526 C   0  0  0  0  0  0  0  0  0  0  0  0
   -3.8363  -16.8024   18.7264 N   0  0  0  0  0  0  0  0  0  0  0  0
   -4.7746  -17.7143   18.9904 N   0  0  0  0  0  0  0  0  0  0  0  0
   -5.4489  -17.7810   17.8551 C   0  0  0  0  0  0  0  0  0  0  0  0
   -4.9160  -16.9255   16.8586 C   0  0  0  0  0  0  0  0  0  0  0  0
   -5.5683  -17.0761   15.3196 Cl  0  0  0  0  0  0  0  0  0  0  0  0
   -1.1340  -11.2139   17.8924 H   0  0  0  0  0  0  0  0  0  0  0  0
   -1.9989  -12.5832   17.5300 H   0  0  0  0  0  0  0  0  0  0  0  0
   -1.5427  -12.1947   19.1444 H   0  0  0  0  0  0  0  0  0  0  0  0
    0.4664  -13.7128   16.8134 H   0  0  0  0  0  0  0  0  0  0  0  0
    2.7201  -14.7871   17.5693 H   0  0  0  0  0  0  0  0  0  0  0  0
    2.3374  -14.6267   19.0700 H   0  0  0  0  0  0  0  0  0  0  0  0
    4.1252  -12.0449   16.8036 H   0  0  0  0  0  0  0  0  0  0  0  0
    4.6352  -11.9265   18.0880 H   0  0  0  0  0  0  0  0  0  0  0  0
    3.0737  -11.3550   17.6711 H   0  0  0  0  0  0  0  0  0  0  0  0
    6.4828  -12.6569   21.0680 H   0  0  0  0  0  0  0  0  0  0  0  0
    5.1133  -11.7127   21.1740 H   0  0  0  0  0  0  0  0  0  0  0  0
    5.6043   -9.0342   19.4411 H   0  0  0  0  0  0  0  0  0  0  0  0
    7.7647   -7.7332   20.3700 H   0  0  0  0  0  0  0  0  0  0  0  0
    8.6421  -11.6374   20.7316 H   0  0  0  0  0  0  0  0  0  0  0  0
   -1.6328  -15.0056   18.9236 H   0  0  0  0  0  0  0  0  0  0  0  0
   -3.1821  -16.5990   19.4726 H   0  0  0  0  0  0  0  0  0  0  0  0
   -6.2768  -18.4750   17.7777 H   0  0  0  0  0  0  0  0  0  0  0  0
  1  2  1  0
  2  3  1  0
  3  4  1  0
  4  5  1  0
  4  6  1  0
  6  7  2  0
  6  8  1  0
  8  9  1  0
  9 10  2  0
 10 11  1  0
 11 12  2  0
 12 13  1  0
  2 14  1  0
 14 15  1  0
 15 16  2  0
 15 17  1  0
 17 18  1  0
 18 19  1  0
 19 20  2  0
 20 21  1  0
 21 22  1  0
 13  9  1  0
 21 17  2  0
  1 23  1  0
  1 24  1  0
  1 25  1  0
  2 26  1  0
  3 27  1  0
  3 28  1  0
  5 29  1  0
  5 30  1  0
  5 31  1  0
  8 32  1  0
  8 33  1  0
 10 34  1  0
 11 35  1  0
 13 36  1  0
 14 37  1  0
 18 38  1  0
 20 39  1  0
M  END
>  <Energy>  (637) 
584.71692858502627

>  <compound_id>  (637) 
13533

>  <target_id>  (637) 
1

>  <reference_id>  (637) 
81

>  <inspiration_ids>  (637) 
[112, 81]

>  <energy_score>  (637) 
547.0028811314198

>  <distance_score>  (637) 
12.112768260053091

>  <path>  (637) 
/opt/xchem-fragalysis-2/maxwin/BulkDock/SCRATCH/511016/C13533-P81/C13533-P81.minimised.mol

>  <scratch_subdir>  (637) 
/opt/xchem-fragalysis-2/maxwin/BulkDock/SCRATCH/511016/C13533-P81

>  <fragmenstein_runtime>  (637) 
29.088449478149414

>  <fragmenstein_outcome>  (637) 
too moved

>  <fragmenstein_mode>  (637) 
expansion

>  <fragmenstein_error>  (637) 


$$$$
C13534-P112
     RDKit          3D

 39 40  0  0  0  0  0  0  0  0999 V2000
    2.0466  -21.5058   14.5298 C   0  0  0  0  0  0  0  0  0  0  0  0
    1.7720  -20.4309   13.4420 C   0  0  0  0  0  0  0  0  0  0  0  0
    2.3692  -20.9152   12.0557 C   0  0  0  0  0  0  0  0  0  0  0  0
    0.1032  -19.7734   13.1675 C   0  0  0  0  0  0  0  0  0  0  0  0
   -1.7448  -19.9611   13.6188 N   0  0  0  0  0  0  0  0  0  0  0  0
   -3.2915  -20.5439   12.5326 C   0  0  0  0  0  0  0  0  0  0  0  0
   -3.1812  -20.9642   11.3829 O   0  0  0  0  0  0  0  0  0  0  0  0
   -4.7118  -20.4359   12.8672 C   0  0  0  0  0  0  0  0  0  0  0  0
   -5.4274  -19.3389   13.1679 N   0  0  0  0  0  0  0  0  0  0  0  0
   -6.2911  -18.9692   12.1913 N   0  0  0  0  0  0  0  0  0  0  0  0
   -6.6247  -20.1377   11.6772 C   0  0  0  0  0  0  0  0  0  0  0  0
   -5.6356  -21.0788   11.9786 C   0  0  0  0  0  0  0  0  0  0  0  0
   -5.3857  -22.5364   11.0522 Cl  0  0  0  0  0  0  0  0  0  0  0  0
    2.7673  -19.3346   13.7452 N   0  0  0  0  0  0  0  0  0  0  0  0
    4.1539  -19.4012   14.2081 C   0  0  0  0  0  0  0  0  0  0  0  0
    4.8240  -20.3409   14.5403 O   0  0  0  0  0  0  0  0  0  0  0  0
    4.8086  -18.0160   14.1333 C   0  0  0  0  0  0  0  0  0  0  0  0
    6.3142  -18.0459   14.2531 C   0  0  0  0  0  0  0  0  0  0  0  0
    7.3337  -18.4311   13.4044 C   0  0  0  0  0  0  0  0  0  0  0  0
    8.5311  -18.1190   14.0843 C   0  0  0  0  0  0  0  0  0  0  0  0
    8.3023  -17.6070   15.2927 N   0  0  0  0  0  0  0  0  0  0  0  0
    6.9594  -17.6383   15.3821 N   0  0  0  0  0  0  0  0  0  0  0  0
    2.0287  -21.0787   15.5384 H   0  0  0  0  0  0  0  0  0  0  0  0
    3.0499  -21.9289   14.4008 H   0  0  0  0  0  0  0  0  0  0  0  0
    1.4111  -22.3851   14.5210 H   0  0  0  0  0  0  0  0  0  0  0  0
    1.9585  -20.3215   11.2318 H   0  0  0  0  0  0  0  0  0  0  0  0
    3.4593  -20.7949   12.0107 H   0  0  0  0  0  0  0  0  0  0  0  0
    2.2121  -21.9766   11.8366 H   0  0  0  0  0  0  0  0  0  0  0  0
    0.2006  -19.2542   12.2119 H   0  0  0  0  0  0  0  0  0  0  0  0
    0.3081  -19.0001   13.8986 H   0  0  0  0  0  0  0  0  0  0  0  0
   -2.0678  -19.5822   14.4861 H   0  0  0  0  0  0  0  0  0  0  0  0
   -5.2518  -18.6736   13.9054 H   0  0  0  0  0  0  0  0  0  0  0  0
   -7.4925  -20.1416   11.0363 H   0  0  0  0  0  0  0  0  0  0  0  0
    2.4996  -18.3539   13.6297 H   0  0  0  0  0  0  0  0  0  0  0  0
    4.5616  -17.5715   13.1638 H   0  0  0  0  0  0  0  0  0  0  0  0
    4.3783  -17.4041   14.9337 H   0  0  0  0  0  0  0  0  0  0  0  0
    7.2276  -18.8555   12.4160 H   0  0  0  0  0  0  0  0  0  0  0  0
    9.5507  -18.2516   13.7479 H   0  0  0  0  0  0  0  0  0  0  0  0
    6.5254  -17.4081   16.2609 H   0  0  0  0  0  0  0  0  0  0  0  0
  1  2  1  0
  2  3  1  0
  2  4  1  0
  4  5  1  0
  5  6  1  0
  6  7  2  0
  6  8  1  0
  8  9  1  0
  9 10  1  0
 10 11  2  0
 11 12  1  0
 12 13  1  0
  2 14  1  0
 14 15  1  0
 15 16  2  0
 15 17  1  0
 17 18  1  0
 18 19  2  0
 19 20  1  0
 20 21  2  0
 21 22  1  0
 12  8  2  0
 22 18  1  0
  1 23  1  0
  1 24  1  0
  1 25  1  0
  3 26  1  0
  3 27  1  0
  3 28  1  0
  4 29  1  0
  4 30  1  0
  5 31  1  0
  9 32  1  0
 11 33  1  0
 14 34  1  0
 17 35  1  0
 17 36  1  0
 19 37  1  0
 20 38  1  0
 22 39  1  0
M  END
>  <Energy>  (638) 
292.92546369161101

>  <compound_id>  (638) 
13534

>  <target_id>  (638) 
1

>  <reference_id>  (638) 
112

>  <inspiration_ids>  (638) 
[112, 81]

>  <energy_score>  (638) 
248.05893605763828

>  <distance_score>  (638) 
12.704611494464334

>  <path>  (638) 
/opt/xchem-fragalysis-2/maxwin/BulkDock/SCRATCH/511016/C13534-P112/C13534-P112.minimised.mol

>  <scratch_subdir>  (638) 
/opt/xchem-fragalysis-2/maxwin/BulkDock/SCRATCH/511016/C13534-P112

>  <fragmenstein_runtime>  (638) 
21.24794292449951

>  <fragmenstein_outcome>  (638) 
too moved

>  <fragmenstein_mode>  (638) 
expansion

>  <fragmenstein_error>  (638) 


$$$$
C13534-P81
     RDKit          3D

 39 40  0  0  0  0  0  0  0  0999 V2000
    0.5951  -14.3139   11.5595 C   0  0  0  0  0  0  0  0  0  0  0  0
    1.1274  -14.5247   13.0345 C   0  0  0  0  0  0  0  0  0  0  0  0
   -0.0272  -13.4707   13.1704 C   0  0  0  0  0  0  0  0  0  0  0  0
    0.9866  -16.6155   12.5281 C   0  0  0  0  0  0  0  0  0  0  0  0
    0.2256  -18.4437   12.3685 N   0  0  0  0  0  0  0  0  0  0  0  0
   -1.0890  -19.3436   13.3341 C   0  0  0  0  0  0  0  0  0  0  0  0
   -1.5045  -18.7754   14.3002 O   0  0  0  0  0  0  0  0  0  0  0  0
   -2.1597  -20.8892   13.0360 C   0  0  0  0  0  0  0  0  0  0  0  0
   -3.4177  -20.7691   12.2054 N   0  0  0  0  0  0  0  0  0  0  0  0
   -3.4335  -21.6909   11.1861 N   0  0  0  0  0  0  0  0  0  0  0  0
   -3.1756  -22.7964   11.8708 C   0  0  0  0  0  0  0  0  0  0  0  0
   -2.6347  -22.4153   13.2336 C   0  0  0  0  0  0  0  0  0  0  0  0
   -2.2219  -23.8433   14.2063 Cl  0  0  0  0  0  0  0  0  0  0  0  0
    1.9789  -13.1154   14.4124 N   0  0  0  0  0  0  0  0  0  0  0  0
    3.9349  -12.3476   14.5817 C   0  0  0  0  0  0  0  0  0  0  0  0
    4.9823  -12.6637   13.9806 O   0  0  0  0  0  0  0  0  0  0  0  0
    4.1683  -11.2171   15.3495 C   0  0  0  0  0  0  0  0  0  0  0  0
    5.2793  -10.1399   14.1372 C   0  0  0  0  0  0  0  0  0  0  0  0
    4.8885   -8.7745   13.7906 C   0  0  0  0  0  0  0  0  0  0  0  0
    6.0470   -7.8787   13.7233 C   0  0  0  0  0  0  0  0  0  0  0  0
    7.2759   -8.4006   13.8362 N   0  0  0  0  0  0  0  0  0  0  0  0
    7.0389   -9.8257   13.9061 N   0  0  0  0  0  0  0  0  0  0  0  0
    0.8953  -13.3126   11.2332 H   0  0  0  0  0  0  0  0  0  0  0  0
    0.9533  -15.0933   10.8667 H   0  0  0  0  0  0  0  0  0  0  0  0
   -0.4835  -14.4847   11.3799 H   0  0  0  0  0  0  0  0  0  0  0  0
    0.3276  -12.5218   13.5315 H   0  0  0  0  0  0  0  0  0  0  0  0
   -0.3426  -12.8223   12.3377 H   0  0  0  0  0  0  0  0  0  0  0  0
   -0.7795  -13.7954   13.8424 H   0  0  0  0  0  0  0  0  0  0  0  0
    0.1654  -16.3967   11.8365 H   0  0  0  0  0  0  0  0  0  0  0  0
    1.7069  -16.8700   11.7309 H   0  0  0  0  0  0  0  0  0  0  0  0
    0.4302  -18.9870   11.5357 H   0  0  0  0  0  0  0  0  0  0  0  0
   -3.9621  -19.9217   12.0888 H   0  0  0  0  0  0  0  0  0  0  0  0
   -3.3696  -23.7812   11.4688 H   0  0  0  0  0  0  0  0  0  0  0  0
    1.3728  -12.6845   15.1148 H   0  0  0  0  0  0  0  0  0  0  0  0
    3.5263  -10.6616   14.6580 H   0  0  0  0  0  0  0  0  0  0  0  0
    3.7048  -10.9235   16.2926 H   0  0  0  0  0  0  0  0  0  0  0  0
    3.9580   -8.2946   13.7277 H   0  0  0  0  0  0  0  0  0  0  0  0
    5.7876   -6.9372   13.2972 H   0  0  0  0  0  0  0  0  0  0  0  0
    7.6975  -10.4485   14.3939 H   0  0  0  0  0  0  0  0  0  0  0  0
  1  2  1  0
  2  3  1  0
  2  4  1  0
  4  5  1  0
  5  6  1  0
  6  7  2  0
  6  8  1  0
  8  9  1  0
  9 10  1  0
 10 11  2  0
 11 12  1  0
 12 13  1  0
  2 14  1  0
 14 15  1  0
 15 16  2  0
 15 17  1  0
 17 18  1  0
 18 19  2  0
 19 20  1  0
 20 21  2  0
 21 22  1  0
 12  8  2  0
 22 18  1  0
  1 23  1  0
  1 24  1  0
  1 25  1  0
  3 26  1  0
  3 27  1  0
  3 28  1  0
  4 29  1  0
  4 30  1  0
  5 31  1  0
  9 32  1  0
 11 33  1  0
 14 34  1  0
 17 35  1  0
 17 36  1  0
 19 37  1  0
 20 38  1  0
 22 39  1  0
M  END
>  <Energy>  (639) 
1150.1464428286554

>  <compound_id>  (639) 
13534

>  <target_id>  (639) 
1

>  <reference_id>  (639) 
81

>  <inspiration_ids>  (639) 
[112, 81]

>  <energy_score>  (639) 
1105.2799151946979

>  <distance_score>  (639) 
10.210432723140741

>  <path>  (639) 
/opt/xchem-fragalysis-2/maxwin/BulkDock/SCRATCH/511016/C13534-P81/C13534-P81.minimised.mol

>  <scratch_subdir>  (639) 
/opt/xchem-fragalysis-2/maxwin/BulkDock/SCRATCH/511016/C13534-P81

>  <fragmenstein_runtime>  (639) 
18.509708404541016

>  <fragmenstein_outcome>  (639) 
too moved

>  <fragmenstein_mode>  (639) 
expansion

>  <fragmenstein_error>  (639) 


$$$$
C13535-P112
     RDKit          3D

 45 46  0  0  0  0  0  0  0  0999 V2000
   -0.1623  -11.2380   12.0660 C   0  0  0  0  0  0  0  0  0  0  0  0
   -0.8314  -11.2844   13.6322 C   0  0  0  0  0  0  0  0  0  0  0  0
   -0.8213  -13.2617   13.5636 C   0  0  0  0  0  0  0  0  0  0  0  0
   -1.4404  -14.2716   15.1352 C   0  0  0  0  0  0  0  0  0  0  0  0
   -2.9630  -15.5285   15.1326 N   0  0  0  0  0  0  0  0  0  0  0  0
   -3.7928  -16.1428   16.3322 C   0  0  0  0  0  0  0  0  0  0  0  0
   -3.7370  -15.9149   17.5224 O   0  0  0  0  0  0  0  0  0  0  0  0
   -4.7253  -17.2771   15.8172 C   0  0  0  0  0  0  0  0  0  0  0  0
   -5.2040  -18.1685   16.9400 C   0  0  0  0  0  0  0  0  0  0  0  0
   -6.2260  -18.0198   17.8590 C   0  0  0  0  0  0  0  0  0  0  0  0
   -6.2786  -19.2406   18.5589 C   0  0  0  0  0  0  0  0  0  0  0  0
   -5.3486  -20.0991   18.1420 N   0  0  0  0  0  0  0  0  0  0  0  0
   -4.6652  -19.4036   17.2115 N   0  0  0  0  0  0  0  0  0  0  0  0
   -1.0326   -9.7444   15.0265 N   0  0  0  0  0  0  0  0  0  0  0  0
    0.2911   -8.4233   15.7303 C   0  0  0  0  0  0  0  0  0  0  0  0
    1.3981   -8.3886   15.3304 O   0  0  0  0  0  0  0  0  0  0  0  0
    0.1468   -7.4973   16.4867 C   0  0  0  0  0  0  0  0  0  0  0  0
   -0.4759   -6.8084   14.6942 C   0  0  0  0  0  0  0  0  0  0  0  0
    1.5470   -6.0661   15.7562 N   0  0  0  0  0  0  0  0  0  0  0  0
    3.1547   -6.0241   15.3019 C   0  0  0  0  0  0  0  0  0  0  0  0
    3.2345   -4.6827   15.2221 C   0  0  0  0  0  0  0  0  0  0  0  0
    4.1249   -3.7163   16.3272 Cl  0  0  0  0  0  0  0  0  0  0  0  0
    2.4229   -4.4405   14.1814 C   0  0  0  0  0  0  0  0  0  0  0  0
    1.3065   -5.1217   14.4213 N   0  0  0  0  0  0  0  0  0  0  0  0
    0.5080  -10.4278   11.7868 H   0  0  0  0  0  0  0  0  0  0  0  0
    0.5007  -12.0958   11.9512 H   0  0  0  0  0  0  0  0  0  0  0  0
   -0.8549  -11.5208   11.3108 H   0  0  0  0  0  0  0  0  0  0  0  0
    0.1686  -11.7535   13.8745 H   0  0  0  0  0  0  0  0  0  0  0  0
    0.2794  -13.4639   13.4195 H   0  0  0  0  0  0  0  0  0  0  0  0
   -0.7640  -13.7809   12.5629 H   0  0  0  0  0  0  0  0  0  0  0  0
   -0.5792  -14.4121   15.8416 H   0  0  0  0  0  0  0  0  0  0  0  0
   -1.7629  -13.7051   16.1211 H   0  0  0  0  0  0  0  0  0  0  0  0
   -3.2060  -16.0007   14.2822 H   0  0  0  0  0  0  0  0  0  0  0  0
   -4.1500  -17.8951   15.1200 H   0  0  0  0  0  0  0  0  0  0  0  0
   -5.5934  -16.8802   15.2916 H   0  0  0  0  0  0  0  0  0  0  0  0
   -6.8715  -17.1609   17.9758 H   0  0  0  0  0  0  0  0  0  0  0  0
   -6.9602  -19.5396   19.3433 H   0  0  0  0  0  0  0  0  0  0  0  0
   -3.8730  -19.8594   16.7692 H   0  0  0  0  0  0  0  0  0  0  0  0
   -1.9393   -9.5561   15.4237 H   0  0  0  0  0  0  0  0  0  0  0  0
    1.0599   -7.7199   17.0806 H   0  0  0  0  0  0  0  0  0  0  0  0
   -1.0531   -5.9045   14.8858 H   0  0  0  0  0  0  0  0  0  0  0  0
   -0.8874   -7.5144   13.9610 H   0  0  0  0  0  0  0  0  0  0  0  0
   -0.2911   -5.9755   14.0187 H   0  0  0  0  0  0  0  0  0  0  0  0
    3.6159   -6.8628   15.6942 H   0  0  0  0  0  0  0  0  0  0  0  0
    2.4375   -3.6854   13.4223 H   0  0  0  0  0  0  0  0  0  0  0  0
  1  2  1  0
  2  3  1  0
  3  4  1  0
  4  5  1  0
  5  6  1  0
  6  7  2  0
  6  8  1  0
  8  9  1  0
  9 10  2  0
 10 11  1  0
 11 12  2  0
 12 13  1  0
  2 14  1  0
 14 15  1  0
 15 16  2  0
 15 17  1  0
 17 18  1  0
 17 19  1  0
 19 20  1  0
 20 21  2  0
 21 22  1  0
 21 23  1  0
 23 24  2  0
 13  9  1  0
 24 19  1  0
  1 25  1  0
  1 26  1  0
  1 27  1  0
  2 28  1  0
  3 29  1  0
  3 30  1  0
  4 31  1  0
  4 32  1  0
  5 33  1  0
  8 34  1  0
  8 35  1  0
 10 36  1  0
 11 37  1  0
 13 38  1  0
 14 39  1  0
 17 40  1  0
 18 41  1  0
 18 42  1  0
 18 43  1  0
 20 44  1  0
 23 45  1  0
M  END
>  <Energy>  (640) 
1064.0580554686371

>  <compound_id>  (640) 
13535

>  <target_id>  (640) 
1

>  <reference_id>  (640) 
112

>  <inspiration_ids>  (640) 
[112, 81]

>  <energy_score>  (640) 
987.4093958169625

>  <distance_score>  (640) 
10.289406529079274

>  <path>  (640) 
/opt/xchem-fragalysis-2/maxwin/BulkDock/SCRATCH/511016/C13535-P112/C13535-P112.minimised.mol

>  <scratch_subdir>  (640) 
/opt/xchem-fragalysis-2/maxwin/BulkDock/SCRATCH/511016/C13535-P112

>  <fragmenstein_runtime>  (640) 
40.41901206970215

>  <fragmenstein_outcome>  (640) 
too moved

>  <fragmenstein_mode>  (640) 
expansion

>  <fragmenstein_error>  (640) 


$$$$
C13535-P81
     RDKit          3D

 45 46  0  0  0  0  0  0  0  0999 V2000
    1.4640  -11.1262   11.5348 C   0  0  0  0  0  0  0  0  0  0  0  0
    1.4913  -11.4231   13.0547 C   0  0  0  0  0  0  0  0  0  0  0  0
   -0.4579  -12.7322   13.1933 C   0  0  0  0  0  0  0  0  0  0  0  0
   -2.5972  -13.7380   13.5041 C   0  0  0  0  0  0  0  0  0  0  0  0
   -3.9557  -14.8058   12.9984 N   0  0  0  0  0  0  0  0  0  0  0  0
   -5.6420  -14.4589   12.5795 C   0  0  0  0  0  0  0  0  0  0  0  0
   -6.2291  -13.3859   12.4474 O   0  0  0  0  0  0  0  0  0  0  0  0
   -6.5572  -15.7822   12.4790 C   0  0  0  0  0  0  0  0  0  0  0  0
   -7.4536  -16.3284   11.4256 C   0  0  0  0  0  0  0  0  0  0  0  0
   -7.6686  -17.6537   11.0853 C   0  0  0  0  0  0  0  0  0  0  0  0
   -8.7979  -17.6483   10.2601 C   0  0  0  0  0  0  0  0  0  0  0  0
   -9.2877  -16.4184   10.0911 N   0  0  0  0  0  0  0  0  0  0  0  0
   -8.4242  -15.6302   10.7719 N   0  0  0  0  0  0  0  0  0  0  0  0
    3.2836  -10.3811   13.9247 N   0  0  0  0  0  0  0  0  0  0  0  0
    4.2402   -8.5541   13.5300 C   0  0  0  0  0  0  0  0  0  0  0  0
    3.7414   -8.0098   12.5502 O   0  0  0  0  0  0  0  0  0  0  0  0
    5.7466   -7.1497   14.4003 C   0  0  0  0  0  0  0  0  0  0  0  0
    4.1295   -6.3765   15.3324 C   0  0  0  0  0  0  0  0  0  0  0  0
    6.6907   -5.6842   15.6320 N   0  0  0  0  0  0  0  0  0  0  0  0
    8.1213   -4.3939   15.7581 C   0  0  0  0  0  0  0  0  0  0  0  0
    8.1143   -2.9547   15.2148 C   0  0  0  0  0  0  0  0  0  0  0  0
    9.3489   -1.7535   15.1726 Cl  0  0  0  0  0  0  0  0  0  0  0  0
    6.9027   -2.8300   14.7808 C   0  0  0  0  0  0  0  0  0  0  0  0
    6.2214   -3.8139   15.3533 N   0  0  0  0  0  0  0  0  0  0  0  0
    0.9625  -11.9658   11.0906 H   0  0  0  0  0  0  0  0  0  0  0  0
    2.4582  -11.0197   11.0861 H   0  0  0  0  0  0  0  0  0  0  0  0
    0.8959  -10.2529   11.2616 H   0  0  0  0  0  0  0  0  0  0  0  0
    1.3659  -12.0829   13.9740 H   0  0  0  0  0  0  0  0  0  0  0  0
   -0.3759  -12.8436   12.0857 H   0  0  0  0  0  0  0  0  0  0  0  0
    0.0707  -13.6761   13.3935 H   0  0  0  0  0  0  0  0  0  0  0  0
   -2.8216  -14.1779   12.1376 H   0  0  0  0  0  0  0  0  0  0  0  0
   -3.6120  -13.2290   13.5115 H   0  0  0  0  0  0  0  0  0  0  0  0
   -3.8255  -15.6972   13.1019 H   0  0  0  0  0  0  0  0  0  0  0  0
   -6.1363  -16.6032   13.0584 H   0  0  0  0  0  0  0  0  0  0  0  0
   -7.3473  -15.4846   13.2002 H   0  0  0  0  0  0  0  0  0  0  0  0
   -7.1095  -18.5099   11.4369 H   0  0  0  0  0  0  0  0  0  0  0  0
   -9.2937  -18.4870    9.7919 H   0  0  0  0  0  0  0  0  0  0  0  0
   -8.5877  -14.6284   10.7925 H   0  0  0  0  0  0  0  0  0  0  0  0
    3.7822  -10.8375   14.6859 H   0  0  0  0  0  0  0  0  0  0  0  0
    6.5259   -7.7243   14.8794 H   0  0  0  0  0  0  0  0  0  0  0  0
    4.4953   -6.1943   16.3599 H   0  0  0  0  0  0  0  0  0  0  0  0
    3.4116   -7.1594   15.2668 H   0  0  0  0  0  0  0  0  0  0  0  0
    3.5516   -5.5278   14.9101 H   0  0  0  0  0  0  0  0  0  0  0  0
    8.9058   -4.6413   14.9986 H   0  0  0  0  0  0  0  0  0  0  0  0
    6.4460   -2.0075   14.2707 H   0  0  0  0  0  0  0  0  0  0  0  0
  1  2  1  0
  2  3  1  0
  3  4  1  0
  4  5  1  0
  5  6  1  0
  6  7  2  0
  6  8  1  0
  8  9  1  0
  9 10  2  0
 10 11  1  0
 11 12  2  0
 12 13  1  0
  2 14  1  0
 14 15  1  0
 15 16  2  0
 15 17  1  0
 17 18  1  0
 17 19  1  0
 19 20  1  0
 20 21  2  0
 21 22  1  0
 21 23  1  0
 23 24  2  0
 13  9  1  0
 24 19  1  0
  1 25  1  0
  1 26  1  0
  1 27  1  0
  2 28  1  0
  3 29  1  0
  3 30  1  0
  4 31  1  0
  4 32  1  0
  5 33  1  0
  8 34  1  0
  8 35  1  0
 10 36  1  0
 11 37  1  0
 13 38  1  0
 14 39  1  0
 17 40  1  0
 18 41  1  0
 18 42  1  0
 18 43  1  0
 20 44  1  0
 23 45  1  0
M  END
>  <Energy>  (641) 
2170.2698028789478

>  <compound_id>  (641) 
13535

>  <target_id>  (641) 
1

>  <reference_id>  (641) 
81

>  <inspiration_ids>  (641) 
[112, 81]

>  <energy_score>  (641) 
2093.6211432273058

>  <distance_score>  (641) 
8.551876532711685

>  <path>  (641) 
/opt/xchem-fragalysis-2/maxwin/BulkDock/SCRATCH/511016/C13535-P81/C13535-P81.minimised.mol

>  <scratch_subdir>  (641) 
/opt/xchem-fragalysis-2/maxwin/BulkDock/SCRATCH/511016/C13535-P81

>  <fragmenstein_runtime>  (641) 
18.198370933532715

>  <fragmenstein_outcome>  (641) 
too moved

>  <fragmenstein_mode>  (641) 
expansion

>  <fragmenstein_error>  (641) 


$$$$
C13536-P112
     RDKit          3D

 45 46  0  0  0  0  0  0  0  0999 V2000
   -9.1827  -21.6577   12.3851 C   0  0  0  0  0  0  0  0  0  0  0  0
   -8.1223  -20.6529   11.8760 C   0  0  0  0  0  0  0  0  0  0  0  0
   -6.7545  -20.6755   12.0944 C   0  0  0  0  0  0  0  0  0  0  0  0
   -6.4099  -19.2898   12.2367 C   0  0  0  0  0  0  0  0  0  0  0  0
   -5.4760  -18.9288   13.5335 C   0  0  0  0  0  0  0  0  0  0  0  0
   -5.1510  -17.5260   14.7699 C   0  0  0  0  0  0  0  0  0  0  0  0
   -5.8093  -17.4368   15.7173 O   0  0  0  0  0  0  0  0  0  0  0  0
   -3.7225  -16.6359   14.2197 N   0  0  0  0  0  0  0  0  0  0  0  0
   -3.1511  -15.8003   14.9687 C   0  0  0  0  0  0  0  0  0  0  0  0
   -2.6168  -14.9160   14.8288 C   0  0  0  0  0  0  0  0  0  0  0  0
   -1.0866  -13.8628   13.5780 C   0  0  0  0  0  0  0  0  0  0  0  0
    0.1242  -12.4202   13.2268 N   0  0  0  0  0  0  0  0  0  0  0  0
    1.6342  -11.8606   14.0728 C   0  0  0  0  0  0  0  0  0  0  0  0
    1.9052  -12.5894   14.9210 O   0  0  0  0  0  0  0  0  0  0  0  0
    3.1924  -10.3193   13.9655 C   0  0  0  0  0  0  0  0  0  0  0  0
    3.9961   -8.3918   13.8841 C   0  0  0  0  0  0  0  0  0  0  0  0
    3.7295   -6.6881   14.7970 C   0  0  0  0  0  0  0  0  0  0  0  0
    3.8038   -5.3385   14.3715 C   0  0  0  0  0  0  0  0  0  0  0  0
    3.7224   -4.5072   15.4985 C   0  0  0  0  0  0  0  0  0  0  0  0
    3.4718   -5.2113   16.5922 N   0  0  0  0  0  0  0  0  0  0  0  0
    3.2951   -6.4612   16.1336 N   0  0  0  0  0  0  0  0  0  0  0  0
   -7.3537  -18.5210   11.6494 N   0  0  0  0  0  0  0  0  0  0  0  0
   -8.3010  -19.4240   11.2726 N   0  0  0  0  0  0  0  0  0  0  0  0
   -9.7810  -22.1634   11.6274 H   0  0  0  0  0  0  0  0  0  0  0  0
   -8.6829  -22.4292   12.9797 H   0  0  0  0  0  0  0  0  0  0  0  0
   -9.9396  -21.2206   13.0425 H   0  0  0  0  0  0  0  0  0  0  0  0
   -6.2372  -21.5005   12.5406 H   0  0  0  0  0  0  0  0  0  0  0  0
   -4.6050  -19.4614   13.1312 H   0  0  0  0  0  0  0  0  0  0  0  0
   -5.8628  -19.6245   14.2189 H   0  0  0  0  0  0  0  0  0  0  0  0
   -3.2800  -16.1387   16.1579 H   0  0  0  0  0  0  0  0  0  0  0  0
   -2.5577  -16.7558   14.8099 H   0  0  0  0  0  0  0  0  0  0  0  0
   -4.1126  -15.9846   15.5872 H   0  0  0  0  0  0  0  0  0  0  0  0
   -2.9865  -14.2861   15.9384 H   0  0  0  0  0  0  0  0  0  0  0  0
   -3.2777  -14.1343   13.9182 H   0  0  0  0  0  0  0  0  0  0  0  0
   -0.1489  -14.3307   13.0596 H   0  0  0  0  0  0  0  0  0  0  0  0
   -1.0912  -14.2891   12.4327 H   0  0  0  0  0  0  0  0  0  0  0  0
   -0.0248  -11.8005   12.4385 H   0  0  0  0  0  0  0  0  0  0  0  0
    4.1854  -10.5998   13.5629 H   0  0  0  0  0  0  0  0  0  0  0  0
    3.6825  -10.5993   14.9497 H   0  0  0  0  0  0  0  0  0  0  0  0
    5.0537   -8.5565   13.9783 H   0  0  0  0  0  0  0  0  0  0  0  0
    3.9418   -7.9495   12.8893 H   0  0  0  0  0  0  0  0  0  0  0  0
    3.8952   -5.0011   13.3426 H   0  0  0  0  0  0  0  0  0  0  0  0
    3.8075   -3.4298   15.5590 H   0  0  0  0  0  0  0  0  0  0  0  0
    2.8935   -7.1377   16.7733 H   0  0  0  0  0  0  0  0  0  0  0  0
   -9.1063  -19.0600   10.7790 H   0  0  0  0  0  0  0  0  0  0  0  0
  1  2  1  0
  2  3  2  0
  3  4  1  0
  4  5  1  0
  5  6  1  0
  6  7  2  0
  6  8  1  0
  8  9  1  0
  8 10  1  0
 10 11  1  0
 11 12  1  0
 12 13  1  0
 13 14  2  0
 13 15  1  0
 15 16  1  0
 16 17  1  0
 17 18  2  0
 18 19  1  0
 19 20  2  0
 20 21  1  0
  4 22  2  0
 22 23  1  0
 23  2  1  0
 21 17  1  0
  1 24  1  0
  1 25  1  0
  1 26  1  0
  3 27  1  0
  5 28  1  0
  5 29  1  0
  9 30  1  0
  9 31  1  0
  9 32  1  0
 10 33  1  0
 10 34  1  0
 11 35  1  0
 11 36  1  0
 12 37  1  0
 15 38  1  0
 15 39  1  0
 16 40  1  0
 16 41  1  0
 18 42  1  0
 19 43  1  0
 21 44  1  0
 23 45  1  0
M  END
>  <Energy>  (642) 
1661.9760130137458

>  <compound_id>  (642) 
13536

>  <target_id>  (642) 
1

>  <reference_id>  (642) 
112

>  <inspiration_ids>  (642) 
[112, 81]

>  <energy_score>  (642) 
1599.5612645329547

>  <distance_score>  (642) 
8.655333047754016

>  <path>  (642) 
/opt/xchem-fragalysis-2/maxwin/BulkDock/SCRATCH/511016/C13536-P112/C13536-P112.minimised.mol

>  <scratch_subdir>  (642) 
/opt/xchem-fragalysis-2/maxwin/BulkDock/SCRATCH/511016/C13536-P112

>  <fragmenstein_runtime>  (642) 
17.368226289749146

>  <fragmenstein_outcome>  (642) 
too moved

>  <fragmenstein_mode>  (642) 
expansion

>  <fragmenstein_error>  (642) 


$$$$
C13536-P81
     RDKit          3D

 45 46  0  0  0  0  0  0  0  0999 V2000
  -10.5034  -22.3101    9.0207 C   0  0  0  0  0  0  0  0  0  0  0  0
  -10.0262  -21.0191    8.4759 C   0  0  0  0  0  0  0  0  0  0  0  0
   -9.3482  -19.9407    9.0334 C   0  0  0  0  0  0  0  0  0  0  0  0
   -8.7993  -19.2622    7.9166 C   0  0  0  0  0  0  0  0  0  0  0  0
   -7.3639  -18.5002    7.6735 C   0  0  0  0  0  0  0  0  0  0  0  0
   -6.0354  -17.8396    8.8921 C   0  0  0  0  0  0  0  0  0  0  0  0
   -6.6102  -17.4027    9.8834 O   0  0  0  0  0  0  0  0  0  0  0  0
   -4.0514  -17.8119    8.3582 N   0  0  0  0  0  0  0  0  0  0  0  0
   -3.1349  -17.4114    9.0890 C   0  0  0  0  0  0  0  0  0  0  0  0
   -2.2220  -16.9055    9.1552 C   0  0  0  0  0  0  0  0  0  0  0  0
   -0.0977  -17.0749    9.7764 C   0  0  0  0  0  0  0  0  0  0  0  0
    1.3104  -16.5792   11.2041 N   0  0  0  0  0  0  0  0  0  0  0  0
    3.2519  -16.9290   11.3394 C   0  0  0  0  0  0  0  0  0  0  0  0
    3.8588  -17.6263   10.5294 O   0  0  0  0  0  0  0  0  0  0  0  0
    4.5752  -15.9510   12.8625 C   0  0  0  0  0  0  0  0  0  0  0  0
    6.0277  -14.2981   13.3387 C   0  0  0  0  0  0  0  0  0  0  0  0
    7.7193  -14.0103   14.6230 C   0  0  0  0  0  0  0  0  0  0  0  0
    8.9806  -13.0146   15.3337 C   0  0  0  0  0  0  0  0  0  0  0  0
   10.1677  -13.7204   15.5444 C   0  0  0  0  0  0  0  0  0  0  0  0
   10.0148  -14.9947   15.2878 N   0  0  0  0  0  0  0  0  0  0  0  0
    8.7294  -15.1905   14.9703 N   0  0  0  0  0  0  0  0  0  0  0  0
   -9.4138  -19.6737    6.7868 N   0  0  0  0  0  0  0  0  0  0  0  0
  -10.2032  -20.6825    7.1731 N   0  0  0  0  0  0  0  0  0  0  0  0
  -10.3861  -22.3536   10.1076 H   0  0  0  0  0  0  0  0  0  0  0  0
  -11.5551  -22.4743    8.7696 H   0  0  0  0  0  0  0  0  0  0  0  0
   -9.9308  -23.1381    8.5906 H   0  0  0  0  0  0  0  0  0  0  0  0
   -9.0229  -19.8615   10.0670 H   0  0  0  0  0  0  0  0  0  0  0  0
   -7.9809  -17.5675    7.7427 H   0  0  0  0  0  0  0  0  0  0  0  0
   -7.2824  -18.6716    6.5997 H   0  0  0  0  0  0  0  0  0  0  0  0
   -2.6650  -18.2959    8.2709 H   0  0  0  0  0  0  0  0  0  0  0  0
   -3.7072  -16.4303    8.5799 H   0  0  0  0  0  0  0  0  0  0  0  0
   -3.4665  -18.1308    9.8609 H   0  0  0  0  0  0  0  0  0  0  0  0
   -1.7080  -16.7675    8.1141 H   0  0  0  0  0  0  0  0  0  0  0  0
   -2.3865  -15.7641    9.4767 H   0  0  0  0  0  0  0  0  0  0  0  0
    0.3281  -18.0394    9.4482 H   0  0  0  0  0  0  0  0  0  0  0  0
    0.3576  -16.4292    9.0183 H   0  0  0  0  0  0  0  0  0  0  0  0
    1.0043  -16.0541   12.0156 H   0  0  0  0  0  0  0  0  0  0  0  0
    4.0129  -16.7434   13.4698 H   0  0  0  0  0  0  0  0  0  0  0  0
    5.1675  -16.6320   13.6039 H   0  0  0  0  0  0  0  0  0  0  0  0
    5.7716  -13.2460   13.7469 H   0  0  0  0  0  0  0  0  0  0  0  0
    6.3396  -14.0469   12.2866 H   0  0  0  0  0  0  0  0  0  0  0  0
    8.9203  -11.9375   15.4958 H   0  0  0  0  0  0  0  0  0  0  0  0
   11.1274  -13.3484   15.8765 H   0  0  0  0  0  0  0  0  0  0  0  0
    8.4016  -16.1413   14.8942 H   0  0  0  0  0  0  0  0  0  0  0  0
  -10.7472  -21.1642    6.4650 H   0  0  0  0  0  0  0  0  0  0  0  0
  1  2  1  0
  2  3  2  0
  3  4  1  0
  4  5  1  0
  5  6  1  0
  6  7  2  0
  6  8  1  0
  8  9  1  0
  8 10  1  0
 10 11  1  0
 11 12  1  0
 12 13  1  0
 13 14  2  0
 13 15  1  0
 15 16  1  0
 16 17  1  0
 17 18  2  0
 18 19  1  0
 19 20  2  0
 20 21  1  0
  4 22  2  0
 22 23  1  0
 23  2  1  0
 21 17  1  0
  1 24  1  0
  1 25  1  0
  1 26  1  0
  3 27  1  0
  5 28  1  0
  5 29  1  0
  9 30  1  0
  9 31  1  0
  9 32  1  0
 10 33  1  0
 10 34  1  0
 11 35  1  0
 11 36  1  0
 12 37  1  0
 15 38  1  0
 15 39  1  0
 16 40  1  0
 16 41  1  0
 18 42  1  0
 19 43  1  0
 21 44  1  0
 23 45  1  0
M  END
>  <Energy>  (643) 
2139.8923383900028

>  <compound_id>  (643) 
13536

>  <target_id>  (643) 
1

>  <reference_id>  (643) 
81

>  <inspiration_ids>  (643) 
[112, 81]

>  <energy_score>  (643) 
2077.4775899092356

>  <distance_score>  (643) 
10.707077485611698

>  <path>  (643) 
/opt/xchem-fragalysis-2/maxwin/BulkDock/SCRATCH/511016/C13536-P81/C13536-P81.minimised.mol

>  <scratch_subdir>  (643) 
/opt/xchem-fragalysis-2/maxwin/BulkDock/SCRATCH/511016/C13536-P81

>  <fragmenstein_runtime>  (643) 
30.653379440307617

>  <fragmenstein_outcome>  (643) 
too moved

>  <fragmenstein_mode>  (643) 
expansion

>  <fragmenstein_error>  (643) 


$$$$
C13537-P112
     RDKit          3D

 39 41  0  0  0  0  0  0  0  0999 V2000
    0.9716  -11.9215   13.5938 O   0  0  0  0  0  0  0  0  0  0  0  0
    1.1724  -11.4333   12.5053 C   0  0  0  0  0  0  0  0  0  0  0  0
    0.1703  -11.9329   11.5560 C   0  0  0  0  0  0  0  0  0  0  0  0
   -0.0174  -13.6782   11.8585 C   0  0  0  0  0  0  0  0  0  0  0  0
   -0.6818  -15.0396   11.1463 C   0  0  0  0  0  0  0  0  0  0  0  0
   -1.9235  -15.5350   10.6684 C   0  0  0  0  0  0  0  0  0  0  0  0
   -1.7218  -16.8702   10.1857 C   0  0  0  0  0  0  0  0  0  0  0  0
   -0.4754  -17.2678   10.4089 N   0  0  0  0  0  0  0  0  0  0  0  0
    0.1308  -16.1839   10.9639 N   0  0  0  0  0  0  0  0  0  0  0  0
    2.6221  -10.3658   12.1489 N   0  0  0  0  0  0  0  0  0  0  0  0
    4.0818   -9.6173   13.3909 C   0  0  0  0  0  0  0  0  0  0  0  0
    5.0309   -7.7919   13.8327 C   0  0  0  0  0  0  0  0  0  0  0  0
    5.8612   -6.5248   15.0798 N   0  0  0  0  0  0  0  0  0  0  0  0
    4.6568   -6.0104   16.2569 C   0  0  0  0  0  0  0  0  0  0  0  0
    5.2452   -5.2323   17.1966 C   0  0  0  0  0  0  0  0  0  0  0  0
    4.8673   -4.3572   18.3060 C   0  0  0  0  0  0  0  0  0  0  0  0
    4.1571   -3.1267   18.1997 C   0  0  0  0  0  0  0  0  0  0  0  0
    4.0306   -2.6470   19.4832 C   0  0  0  0  0  0  0  0  0  0  0  0
    4.6286   -3.4875   20.3677 O   0  0  0  0  0  0  0  0  0  0  0  0
    5.1380   -4.5235   19.6497 C   0  0  0  0  0  0  0  0  0  0  0  0
    6.4240   -5.8390   17.0478 C   0  0  0  0  0  0  0  0  0  0  0  0
    6.8813   -6.2859   15.8512 N   0  0  0  0  0  0  0  0  0  0  0  0
   -0.7099  -11.5765   12.0913 H   0  0  0  0  0  0  0  0  0  0  0  0
    0.0450  -11.2648   10.7552 H   0  0  0  0  0  0  0  0  0  0  0  0
   -0.3873  -13.7091   12.8722 H   0  0  0  0  0  0  0  0  0  0  0  0
    1.0173  -13.9980   11.9555 H   0  0  0  0  0  0  0  0  0  0  0  0
   -2.9009  -15.0989   10.6877 H   0  0  0  0  0  0  0  0  0  0  0  0
   -2.4402  -17.5469    9.7410 H   0  0  0  0  0  0  0  0  0  0  0  0
    1.0933  -16.2961   11.2700 H   0  0  0  0  0  0  0  0  0  0  0  0
    2.5432  -10.0109   11.2214 H   0  0  0  0  0  0  0  0  0  0  0  0
    3.9114   -8.8213   12.6787 H   0  0  0  0  0  0  0  0  0  0  0  0
    4.8939  -10.3538   13.3909 H   0  0  0  0  0  0  0  0  0  0  0  0
    4.0921   -7.2678   13.9463 H   0  0  0  0  0  0  0  0  0  0  0  0
    5.7298   -7.3175   13.1519 H   0  0  0  0  0  0  0  0  0  0  0  0
    3.7364   -6.1100   15.6991 H   0  0  0  0  0  0  0  0  0  0  0  0
    3.7894   -2.6535   17.3003 H   0  0  0  0  0  0  0  0  0  0  0  0
    3.5755   -1.7655   19.9126 H   0  0  0  0  0  0  0  0  0  0  0  0
    5.6389   -5.2892   20.2257 H   0  0  0  0  0  0  0  0  0  0  0  0
    6.9278   -6.0519   17.9621 H   0  0  0  0  0  0  0  0  0  0  0  0
  1  2  2  0
  2  3  1  0
  3  4  1  0
  4  5  1  0
  5  6  2  0
  6  7  1  0
  7  8  2  0
  8  9  1  0
  2 10  1  0
 10 11  1  0
 11 12  1  0
 12 13  1  0
 13 14  1  0
 14 15  2  0
 15 16  1  0
 16 17  1  0
 17 18  2  0
 18 19  1  0
 19 20  1  0
 15 21  1  0
 21 22  2  0
  9  5  1  0
 22 13  1  0
 20 16  2  0
  3 23  1  0
  3 24  1  0
  4 25  1  0
  4 26  1  0
  6 27  1  0
  7 28  1  0
  9 29  1  0
 10 30  1  0
 11 31  1  0
 11 32  1  0
 12 33  1  0
 12 34  1  0
 14 35  1  0
 17 36  1  0
 18 37  1  0
 20 38  1  0
 21 39  1  0
M  END
>  <Energy>  (644) 
605.68108806814018

>  <compound_id>  (644) 
13537

>  <target_id>  (644) 
1

>  <reference_id>  (644) 
112

>  <inspiration_ids>  (644) 
[112, 81]

>  <energy_score>  (644) 
569.5491002854538

>  <distance_score>  (644) 
12.887995382909924

>  <path>  (644) 
/opt/xchem-fragalysis-2/maxwin/BulkDock/SCRATCH/511016/C13537-P112/C13537-P112.minimised.mol

>  <scratch_subdir>  (644) 
/opt/xchem-fragalysis-2/maxwin/BulkDock/SCRATCH/511016/C13537-P112

>  <fragmenstein_runtime>  (644) 
15.881538391113281

>  <fragmenstein_outcome>  (644) 
too moved

>  <fragmenstein_mode>  (644) 
expansion

>  <fragmenstein_error>  (644) 


$$$$
C13537-P81
     RDKit          3D

 39 41  0  0  0  0  0  0  0  0999 V2000
    0.0354  -13.7654   11.7777 O   0  0  0  0  0  0  0  0  0  0  0  0
    0.1190  -13.3154   12.8996 C   0  0  0  0  0  0  0  0  0  0  0  0
   -1.1384  -13.9556   14.1827 C   0  0  0  0  0  0  0  0  0  0  0  0
   -2.7827  -14.9388   14.8683 C   0  0  0  0  0  0  0  0  0  0  0  0
   -4.1751  -15.2575   14.2325 C   0  0  0  0  0  0  0  0  0  0  0  0
   -5.1744  -16.0668   14.7642 C   0  0  0  0  0  0  0  0  0  0  0  0
   -6.1519  -16.1724   13.7633 C   0  0  0  0  0  0  0  0  0  0  0  0
   -5.8149  -15.4942   12.6664 N   0  0  0  0  0  0  0  0  0  0  0  0
   -4.6187  -14.9462   12.9757 N   0  0  0  0  0  0  0  0  0  0  0  0
    1.0642  -12.1538   13.4811 N   0  0  0  0  0  0  0  0  0  0  0  0
    2.3568  -10.9172   12.5564 C   0  0  0  0  0  0  0  0  0  0  0  0
    4.1095  -10.1245   13.4631 C   0  0  0  0  0  0  0  0  0  0  0  0
    5.3470   -8.6733   13.9211 N   0  0  0  0  0  0  0  0  0  0  0  0
    6.9860   -7.9089   13.7378 C   0  0  0  0  0  0  0  0  0  0  0  0
    8.0419   -6.7802   14.8237 C   0  0  0  0  0  0  0  0  0  0  0  0
    8.9848   -4.9355   14.6119 C   0  0  0  0  0  0  0  0  0  0  0  0
   10.5738   -4.4248   14.8577 C   0  0  0  0  0  0  0  0  0  0  0  0
   10.7431   -3.0650   14.8434 C   0  0  0  0  0  0  0  0  0  0  0  0
    9.5472   -2.4664   14.8763 O   0  0  0  0  0  0  0  0  0  0  0  0
    8.5568   -3.3880   14.8229 C   0  0  0  0  0  0  0  0  0  0  0  0
    6.4879   -6.9658   15.2791 C   0  0  0  0  0  0  0  0  0  0  0  0
    5.4099   -7.3236   14.0053 N   0  0  0  0  0  0  0  0  0  0  0  0
   -1.2161  -13.9853   15.3325 H   0  0  0  0  0  0  0  0  0  0  0  0
   -1.2378  -12.9103   13.9992 H   0  0  0  0  0  0  0  0  0  0  0  0
   -2.9986  -14.5378   15.8851 H   0  0  0  0  0  0  0  0  0  0  0  0
   -2.5078  -15.9391   15.1536 H   0  0  0  0  0  0  0  0  0  0  0  0
   -5.1735  -16.5349   15.7381 H   0  0  0  0  0  0  0  0  0  0  0  0
   -7.0902  -16.7075   13.7833 H   0  0  0  0  0  0  0  0  0  0  0  0
   -4.1229  -14.4110   12.2689 H   0  0  0  0  0  0  0  0  0  0  0  0
    0.9408  -12.0879   14.4674 H   0  0  0  0  0  0  0  0  0  0  0  0
    1.5892  -10.4582   11.8618 H   0  0  0  0  0  0  0  0  0  0  0  0
    2.6842  -11.2321   11.5022 H   0  0  0  0  0  0  0  0  0  0  0  0
    4.0499  -10.5670   14.4599 H   0  0  0  0  0  0  0  0  0  0  0  0
    4.9333  -10.7956   13.1612 H   0  0  0  0  0  0  0  0  0  0  0  0
    7.1749   -7.8510   12.6595 H   0  0  0  0  0  0  0  0  0  0  0  0
   11.2556   -4.9932   15.4686 H   0  0  0  0  0  0  0  0  0  0  0  0
   11.5911   -2.4183   15.0130 H   0  0  0  0  0  0  0  0  0  0  0  0
    7.5688   -2.9379   14.9116 H   0  0  0  0  0  0  0  0  0  0  0  0
    6.0833   -6.4127   16.1320 H   0  0  0  0  0  0  0  0  0  0  0  0
  1  2  2  0
  2  3  1  0
  3  4  1  0
  4  5  1  0
  5  6  2  0
  6  7  1  0
  7  8  2  0
  8  9  1  0
  2 10  1  0
 10 11  1  0
 11 12  1  0
 12 13  1  0
 13 14  1  0
 14 15  2  0
 15 16  1  0
 16 17  1  0
 17 18  2  0
 18 19  1  0
 19 20  1  0
 15 21  1  0
 21 22  2  0
  9  5  1  0
 22 13  1  0
 20 16  2  0
  3 23  1  0
  3 24  1  0
  4 25  1  0
  4 26  1  0
  6 27  1  0
  7 28  1  0
  9 29  1  0
 10 30  1  0
 11 31  1  0
 11 32  1  0
 12 33  1  0
 12 34  1  0
 14 35  1  0
 17 36  1  0
 18 37  1  0
 20 38  1  0
 21 39  1  0
M  END
>  <Energy>  (645) 
1153.5504765809546

>  <compound_id>  (645) 
13537

>  <target_id>  (645) 
1

>  <reference_id>  (645) 
81

>  <inspiration_ids>  (645) 
[112, 81]

>  <energy_score>  (645) 
1117.4184887982838

>  <distance_score>  (645) 
11.031886037193905

>  <path>  (645) 
/opt/xchem-fragalysis-2/maxwin/BulkDock/SCRATCH/511016/C13537-P81/C13537-P81.minimised.mol

>  <scratch_subdir>  (645) 
/opt/xchem-fragalysis-2/maxwin/BulkDock/SCRATCH/511016/C13537-P81

>  <fragmenstein_runtime>  (645) 
19.69225311279297

>  <fragmenstein_outcome>  (645) 
too moved

>  <fragmenstein_mode>  (645) 
expansion

>  <fragmenstein_error>  (645) 


$$$$
C13539-P112
     RDKit          3D

 40 41  0  0  0  0  0  0  0  0999 V2000
   -3.5846  -16.1547   14.1314 C   0  0  0  0  0  0  0  0  0  0  0  0
   -4.6730  -15.0478   12.9259 N   0  0  0  0  0  0  0  0  0  0  0  0
   -2.9460  -14.8861   11.7686 C   0  0  0  0  0  0  0  0  0  0  0  0
   -0.9605  -14.0704   11.6813 C   0  0  0  0  0  0  0  0  0  0  0  0
   -0.2399  -15.2534   11.1662 O   0  0  0  0  0  0  0  0  0  0  0  0
    0.4563  -12.5268   11.8769 C   0  0  0  0  0  0  0  0  0  0  0  0
    1.4837  -10.9021   11.2957 N   0  0  0  0  0  0  0  0  0  0  0  0
    2.9085   -9.9991   12.0942 C   0  0  0  0  0  0  0  0  0  0  0  0
    3.5298  -10.3671   13.1287 O   0  0  0  0  0  0  0  0  0  0  0  0
    3.5170   -8.2527   11.6256 C   0  0  0  0  0  0  0  0  0  0  0  0
    3.7175   -6.5936   11.9713 C   0  0  0  0  0  0  0  0  0  0  0  0
    5.0332   -6.1541   11.9115 N   0  0  0  0  0  0  0  0  0  0  0  0
    5.4613   -7.1508   13.1209 N   0  0  0  0  0  0  0  0  0  0  0  0
    4.2386   -7.9367   13.2239 C   0  0  0  0  0  0  0  0  0  0  0  0
   -6.0016  -15.5866   11.9188 C   0  0  0  0  0  0  0  0  0  0  0  0
   -6.4114  -16.6999   11.6843 O   0  0  0  0  0  0  0  0  0  0  0  0
   -6.9527  -14.5137   11.2652 C   0  0  0  0  0  0  0  0  0  0  0  0
   -8.3896  -15.0555   11.4334 C   0  0  0  0  0  0  0  0  0  0  0  0
   -9.4254  -15.2273   10.5397 C   0  0  0  0  0  0  0  0  0  0  0  0
  -10.4700  -15.7975   11.2906 C   0  0  0  0  0  0  0  0  0  0  0  0
  -10.1302  -16.0020   12.5659 N   0  0  0  0  0  0  0  0  0  0  0  0
   -8.8468  -15.6043   12.6111 N   0  0  0  0  0  0  0  0  0  0  0  0
   -4.4619  -16.4984   14.7173 H   0  0  0  0  0  0  0  0  0  0  0  0
   -3.0933  -15.6631   14.9848 H   0  0  0  0  0  0  0  0  0  0  0  0
   -3.2384  -17.2246   14.1838 H   0  0  0  0  0  0  0  0  0  0  0  0
   -3.3648  -14.8762   10.7391 H   0  0  0  0  0  0  0  0  0  0  0  0
   -2.6753  -15.6347   11.1083 H   0  0  0  0  0  0  0  0  0  0  0  0
   -0.7036  -14.2205   12.7222 H   0  0  0  0  0  0  0  0  0  0  0  0
    0.5983  -15.3601   11.6506 H   0  0  0  0  0  0  0  0  0  0  0  0
   -0.3696  -11.8627   11.6624 H   0  0  0  0  0  0  0  0  0  0  0  0
    1.0862  -13.0939   11.2353 H   0  0  0  0  0  0  0  0  0  0  0  0
    1.1227  -10.3500   10.5377 H   0  0  0  0  0  0  0  0  0  0  0  0
    2.9581   -5.8217   11.7623 H   0  0  0  0  0  0  0  0  0  0  0  0
    6.4169   -7.3903   13.3867 H   0  0  0  0  0  0  0  0  0  0  0  0
    4.4168   -8.7727   13.8486 H   0  0  0  0  0  0  0  0  0  0  0  0
   -6.7613  -14.4098   10.1916 H   0  0  0  0  0  0  0  0  0  0  0  0
   -6.9287  -13.5600   11.8034 H   0  0  0  0  0  0  0  0  0  0  0  0
   -9.4331  -14.9668    9.4908 H   0  0  0  0  0  0  0  0  0  0  0  0
  -11.4641  -16.0640   10.9526 H   0  0  0  0  0  0  0  0  0  0  0  0
   -8.3293  -15.7442   13.4722 H   0  0  0  0  0  0  0  0  0  0  0  0
  1  2  1  0
  2  3  1  0
  3  4  1  0
  4  5  1  0
  4  6  1  0
  6  7  1  0
  7  8  1  0
  8  9  2  0
  8 10  1  0
 10 11  1  0
 11 12  2  0
 12 13  1  0
 13 14  1  0
  2 15  1  0
 15 16  2  0
 15 17  1  0
 17 18  1  0
 18 19  2  0
 19 20  1  0
 20 21  2  0
 21 22  1  0
 14 10  2  0
 22 18  1  0
  1 23  1  0
  1 24  1  0
  1 25  1  0
  3 26  1  0
  3 27  1  0
  4 28  1  0
  5 29  1  0
  6 30  1  0
  6 31  1  0
  7 32  1  0
 11 33  1  0
 13 34  1  0
 14 35  1  0
 17 36  1  0
 17 37  1  0
 19 38  1  0
 20 39  1  0
 22 40  1  0
M  END
>  <Energy>  (646) 
1083.3459293856465

>  <compound_id>  (646) 
13539

>  <target_id>  (646) 
1

>  <reference_id>  (646) 
112

>  <inspiration_ids>  (646) 
[112, 81]

>  <energy_score>  (646) 
1016.728459501405

>  <distance_score>  (646) 
10.467411735253012

>  <path>  (646) 
/opt/xchem-fragalysis-2/maxwin/BulkDock/SCRATCH/511016/C13539-P112/C13539-P112.minimised.mol

>  <scratch_subdir>  (646) 
/opt/xchem-fragalysis-2/maxwin/BulkDock/SCRATCH/511016/C13539-P112

>  <fragmenstein_runtime>  (646) 
17.83652925491333

>  <fragmenstein_outcome>  (646) 
too moved

>  <fragmenstein_mode>  (646) 
expansion

>  <fragmenstein_error>  (646) 


$$$$
C13539-P81
     RDKit          3D

 40 41  0  0  0  0  0  0  0  0999 V2000
    3.3938  -20.0982   24.3508 C   0  0  0  0  0  0  0  0  0  0  0  0
    2.9960  -20.5071   22.9990 N   0  0  0  0  0  0  0  0  0  0  0  0
    4.3862  -19.7519   22.6207 C   0  0  0  0  0  0  0  0  0  0  0  0
    5.0346  -18.3377   23.1475 C   0  0  0  0  0  0  0  0  0  0  0  0
    5.5769  -18.4873   24.4742 O   0  0  0  0  0  0  0  0  0  0  0  0
    6.2417  -17.8601   22.2338 C   0  0  0  0  0  0  0  0  0  0  0  0
    6.5281  -16.3993   22.1433 N   0  0  0  0  0  0  0  0  0  0  0  0
    7.5364  -15.5916   22.7851 C   0  0  0  0  0  0  0  0  0  0  0  0
    8.3487  -15.8748   23.6146 O   0  0  0  0  0  0  0  0  0  0  0  0
    7.6374  -14.1927   22.2432 C   0  0  0  0  0  0  0  0  0  0  0  0
    8.8404  -13.4166   22.1468 C   0  0  0  0  0  0  0  0  0  0  0  0
    8.6638  -12.1864   21.6502 N   0  0  0  0  0  0  0  0  0  0  0  0
    7.3415  -12.1262   21.4417 N   0  0  0  0  0  0  0  0  0  0  0  0
    6.6883  -13.2901   21.7860 C   0  0  0  0  0  0  0  0  0  0  0  0
    1.9132  -20.0376   22.1447 C   0  0  0  0  0  0  0  0  0  0  0  0
    1.1285  -19.1316   22.2997 O   0  0  0  0  0  0  0  0  0  0  0  0
    1.7504  -20.9752   20.9008 C   0  0  0  0  0  0  0  0  0  0  0  0
    0.3060  -21.3961   20.5535 C   0  0  0  0  0  0  0  0  0  0  0  0
   -0.1951  -22.5592   19.9854 C   0  0  0  0  0  0  0  0  0  0  0  0
   -1.5865  -22.3656   19.8681 C   0  0  0  0  0  0  0  0  0  0  0  0
   -1.9611  -21.1593   20.2974 N   0  0  0  0  0  0  0  0  0  0  0  0
   -0.8013  -20.5954   20.7180 N   0  0  0  0  0  0  0  0  0  0  0  0
    4.3274  -20.5391   24.7243 H   0  0  0  0  0  0  0  0  0  0  0  0
    2.6347  -20.5849   24.9823 H   0  0  0  0  0  0  0  0  0  0  0  0
    3.1990  -19.0410   24.5636 H   0  0  0  0  0  0  0  0  0  0  0  0
    5.1586  -20.5290   22.7483 H   0  0  0  0  0  0  0  0  0  0  0  0
    4.2866  -19.6327   21.5415 H   0  0  0  0  0  0  0  0  0  0  0  0
    4.2646  -17.5698   23.2231 H   0  0  0  0  0  0  0  0  0  0  0  0
    6.1091  -17.6893   24.6613 H   0  0  0  0  0  0  0  0  0  0  0  0
    7.1655  -18.3236   22.5999 H   0  0  0  0  0  0  0  0  0  0  0  0
    6.1004  -18.1911   21.2015 H   0  0  0  0  0  0  0  0  0  0  0  0
    6.0691  -15.8470   21.4249 H   0  0  0  0  0  0  0  0  0  0  0  0
    9.8391  -13.7290   22.4290 H   0  0  0  0  0  0  0  0  0  0  0  0
    6.9526  -11.2722   21.0496 H   0  0  0  0  0  0  0  0  0  0  0  0
    5.6169  -13.3408   21.7027 H   0  0  0  0  0  0  0  0  0  0  0  0
    2.1670  -20.4529   20.0349 H   0  0  0  0  0  0  0  0  0  0  0  0
    2.3411  -21.8856   21.0577 H   0  0  0  0  0  0  0  0  0  0  0  0
    0.3762  -23.4310   19.6990 H   0  0  0  0  0  0  0  0  0  0  0  0
   -2.3332  -23.0463   19.4812 H   0  0  0  0  0  0  0  0  0  0  0  0
   -0.8219  -19.6642   21.1273 H   0  0  0  0  0  0  0  0  0  0  0  0
  1  2  1  0
  2  3  1  0
  3  4  1  0
  4  5  1  0
  4  6  1  0
  6  7  1  0
  7  8  1  0
  8  9  2  0
  8 10  1  0
 10 11  1  0
 11 12  2  0
 12 13  1  0
 13 14  1  0
  2 15  1  0
 15 16  2  0
 15 17  1  0
 17 18  1  0
 18 19  2  0
 19 20  1  0
 20 21  2  0
 21 22  1  0
 14 10  2  0
 22 18  1  0
  1 23  1  0
  1 24  1  0
  1 25  1  0
  3 26  1  0
  3 27  1  0
  4 28  1  0
  5 29  1  0
  6 30  1  0
  6 31  1  0
  7 32  1  0
 11 33  1  0
 13 34  1  0
 14 35  1  0
 17 36  1  0
 17 37  1  0
 19 38  1  0
 20 39  1  0
 22 40  1  0
M  END
>  <Energy>  (647) 
134.11760611286789

>  <compound_id>  (647) 
13539

>  <target_id>  (647) 
1

>  <reference_id>  (647) 
81

>  <inspiration_ids>  (647) 
[112, 81]

>  <energy_score>  (647) 
67.50013622863082

>  <distance_score>  (647) 
14.19005549343371

>  <path>  (647) 
/opt/xchem-fragalysis-2/maxwin/BulkDock/SCRATCH/511016/C13539-P81/C13539-P81.minimised.mol

>  <scratch_subdir>  (647) 
/opt/xchem-fragalysis-2/maxwin/BulkDock/SCRATCH/511016/C13539-P81

>  <fragmenstein_runtime>  (647) 
30.753706693649292

>  <fragmenstein_outcome>  (647) 
too moved

>  <fragmenstein_mode>  (647) 
expansion

>  <fragmenstein_error>  (647) 


$$$$
C13540-P112
     RDKit          3D

 46 47  0  0  0  0  0  0  0  0999 V2000
    1.4365   -2.9935   17.0989 C   0  0  0  0  0  0  0  0  0  0  0  0
    2.9384   -3.1860   16.9725 C   0  0  0  0  0  0  0  0  0  0  0  0
    3.3182   -4.5877   16.9554 N   0  0  0  0  0  0  0  0  0  0  0  0
    3.1144   -5.4671   15.9274 C   0  0  0  0  0  0  0  0  0  0  0  0
    3.4447   -6.7703   16.3339 C   0  0  0  0  0  0  0  0  0  0  0  0
    2.5935   -8.0697   15.7438 C   0  0  0  0  0  0  0  0  0  0  0  0
    1.3877   -7.9757   16.1536 O   0  0  0  0  0  0  0  0  0  0  0  0
    3.1651   -9.4883   14.4532 N   0  0  0  0  0  0  0  0  0  0  0  0
    2.1192  -10.8408   13.4457 C   0  0  0  0  0  0  0  0  0  0  0  0
    1.1778  -11.0592   11.7393 C   0  0  0  0  0  0  0  0  0  0  0  0
    0.9981   -9.8897   10.9829 O   0  0  0  0  0  0  0  0  0  0  0  0
   -0.1881  -12.2324   11.4820 C   0  0  0  0  0  0  0  0  0  0  0  0
   -0.6305  -13.9818   11.8020 N   0  0  0  0  0  0  0  0  0  0  0  0
    0.4385  -13.6281   12.5288 C   0  0  0  0  0  0  0  0  0  0  0  0
   -0.8069  -15.1815   10.8107 C   0  0  0  0  0  0  0  0  0  0  0  0
    0.0055  -15.9994   10.4163 O   0  0  0  0  0  0  0  0  0  0  0  0
   -2.3910  -15.4410    9.9768 C   0  0  0  0  0  0  0  0  0  0  0  0
   -2.4714  -16.8617    8.7148 C   0  0  0  0  0  0  0  0  0  0  0  0
   -1.5273  -17.6284    7.9525 C   0  0  0  0  0  0  0  0  0  0  0  0
   -2.2109  -18.7275    7.3644 C   0  0  0  0  0  0  0  0  0  0  0  0
   -3.5214  -18.5816    7.4593 N   0  0  0  0  0  0  0  0  0  0  0  0
   -3.6367  -17.3579    7.9790 N   0  0  0  0  0  0  0  0  0  0  0  0
    3.6681   -6.4772   17.7559 C   0  0  0  0  0  0  0  0  0  0  0  0
    3.7338   -5.1858   18.0702 N   0  0  0  0  0  0  0  0  0  0  0  0
    0.9048   -3.4428   16.2535 H   0  0  0  0  0  0  0  0  0  0  0  0
    1.1921   -1.9271   17.1256 H   0  0  0  0  0  0  0  0  0  0  0  0
    1.0564   -3.4555   18.0162 H   0  0  0  0  0  0  0  0  0  0  0  0
    3.3112   -2.7376   16.0455 H   0  0  0  0  0  0  0  0  0  0  0  0
    3.4436   -2.7031   17.8146 H   0  0  0  0  0  0  0  0  0  0  0  0
    2.6383   -5.0896   15.0362 H   0  0  0  0  0  0  0  0  0  0  0  0
    4.1576   -9.3282   14.1771 H   0  0  0  0  0  0  0  0  0  0  0  0
    1.6048  -11.7178   13.9461 H   0  0  0  0  0  0  0  0  0  0  0  0
    2.8380  -10.5178   12.6679 H   0  0  0  0  0  0  0  0  0  0  0  0
    1.9494  -11.4538   11.0556 H   0  0  0  0  0  0  0  0  0  0  0  0
    1.3996   -9.1683   11.5037 H   0  0  0  0  0  0  0  0  0  0  0  0
   -0.7134  -11.7579   12.3239 H   0  0  0  0  0  0  0  0  0  0  0  0
   -0.8052  -11.8243   10.7207 H   0  0  0  0  0  0  0  0  0  0  0  0
    1.2783  -13.5649   11.8664 H   0  0  0  0  0  0  0  0  0  0  0  0
    0.3270  -12.9728   13.3312 H   0  0  0  0  0  0  0  0  0  0  0  0
    0.6539  -14.6093   12.7549 H   0  0  0  0  0  0  0  0  0  0  0  0
   -3.0724  -15.4750   10.7849 H   0  0  0  0  0  0  0  0  0  0  0  0
   -2.8467  -14.5742    9.5407 H   0  0  0  0  0  0  0  0  0  0  0  0
   -0.4441  -17.5266    7.9668 H   0  0  0  0  0  0  0  0  0  0  0  0
   -1.7925  -19.5957    6.8719 H   0  0  0  0  0  0  0  0  0  0  0  0
   -4.5763  -16.9589    7.9881 H   0  0  0  0  0  0  0  0  0  0  0  0
    3.7222   -7.1865   18.5745 H   0  0  0  0  0  0  0  0  0  0  0  0
  1  2  1  0
  2  3  1  0
  3  4  1  0
  4  5  2  0
  5  6  1  0
  6  7  2  0
  6  8  1  0
  8  9  1  0
  9 10  1  0
 10 11  1  0
 10 12  1  0
 12 13  1  0
 13 14  1  0
 13 15  1  0
 15 16  2  0
 15 17  1  0
 17 18  1  0
 18 19  2  0
 19 20  1  0
 20 21  2  0
 21 22  1  0
  5 23  1  0
 23 24  2  0
 24  3  1  0
 22 18  1  0
  1 25  1  0
  1 26  1  0
  1 27  1  0
  2 28  1  0
  2 29  1  0
  4 30  1  0
  8 31  1  0
  9 32  1  0
  9 33  1  0
 10 34  1  0
 11 35  1  0
 12 36  1  0
 12 37  1  0
 14 38  1  0
 14 39  1  0
 14 40  1  0
 17 41  1  0
 17 42  1  0
 19 43  1  0
 20 44  1  0
 22 45  1  0
 23 46  1  0
M  END
>  <Energy>  (648) 
707.97083791173156

>  <compound_id>  (648) 
13540

>  <target_id>  (648) 
1

>  <reference_id>  (648) 
112

>  <inspiration_ids>  (648) 
[112, 81]

>  <energy_score>  (648) 
618.800692389949

>  <distance_score>  (648) 
11.906689368883185

>  <path>  (648) 
/opt/xchem-fragalysis-2/maxwin/BulkDock/SCRATCH/511016/C13540-P112/C13540-P112.minimised.mol

>  <scratch_subdir>  (648) 
/opt/xchem-fragalysis-2/maxwin/BulkDock/SCRATCH/511016/C13540-P112

>  <fragmenstein_runtime>  (648) 
29.93175768852234

>  <fragmenstein_outcome>  (648) 
too moved

>  <fragmenstein_mode>  (648) 
expansion

>  <fragmenstein_error>  (648) 


$$$$
C13540-P81
     RDKit          3D

 46 47  0  0  0  0  0  0  0  0999 V2000
    1.2831   -1.7900   15.3518 C   0  0  0  0  0  0  0  0  0  0  0  0
    2.7013   -2.2408   15.0532 C   0  0  0  0  0  0  0  0  0  0  0  0
    2.9614   -3.5874   15.5231 N   0  0  0  0  0  0  0  0  0  0  0  0
    2.8319   -4.7466   14.8035 C   0  0  0  0  0  0  0  0  0  0  0  0
    3.3391   -5.7940   15.5830 C   0  0  0  0  0  0  0  0  0  0  0  0
    3.2381   -7.3132   15.5161 C   0  0  0  0  0  0  0  0  0  0  0  0
    2.6454   -7.7274   16.5061 O   0  0  0  0  0  0  0  0  0  0  0  0
    3.7884   -8.3641   14.0774 N   0  0  0  0  0  0  0  0  0  0  0  0
    3.4708  -10.3015   13.6816 C   0  0  0  0  0  0  0  0  0  0  0  0
    1.7947  -11.1851   12.7138 C   0  0  0  0  0  0  0  0  0  0  0  0
    2.3145  -11.2324   11.2081 O   0  0  0  0  0  0  0  0  0  0  0  0
    0.7806  -12.9846   13.3269 C   0  0  0  0  0  0  0  0  0  0  0  0
   -0.9575  -13.2246   13.8951 N   0  0  0  0  0  0  0  0  0  0  0  0
   -0.6944  -11.7454   13.3840 C   0  0  0  0  0  0  0  0  0  0  0  0
   -1.6656  -13.9079   15.6402 C   0  0  0  0  0  0  0  0  0  0  0  0
   -1.9156  -13.1654   16.6462 O   0  0  0  0  0  0  0  0  0  0  0  0
   -2.1420  -15.2498   15.9140 C   0  0  0  0  0  0  0  0  0  0  0  0
   -3.7865  -15.5009   16.2084 C   0  0  0  0  0  0  0  0  0  0  0  0
   -4.4498  -15.7915   17.3933 C   0  0  0  0  0  0  0  0  0  0  0  0
   -5.6778  -16.3759   17.0136 C   0  0  0  0  0  0  0  0  0  0  0  0
   -5.8120  -16.4443   15.6902 N   0  0  0  0  0  0  0  0  0  0  0  0
   -4.6830  -15.8731   15.2317 N   0  0  0  0  0  0  0  0  0  0  0  0
    3.4972   -5.1218   16.8461 C   0  0  0  0  0  0  0  0  0  0  0  0
    3.2972   -3.8016   16.7964 N   0  0  0  0  0  0  0  0  0  0  0  0
    1.1212   -0.7737   14.9798 H   0  0  0  0  0  0  0  0  0  0  0  0
    0.5509   -2.4499   14.8741 H   0  0  0  0  0  0  0  0  0  0  0  0
    1.0847   -1.7958   16.4289 H   0  0  0  0  0  0  0  0  0  0  0  0
    2.8912   -2.2236   13.9744 H   0  0  0  0  0  0  0  0  0  0  0  0
    3.4305   -1.5774   15.5316 H   0  0  0  0  0  0  0  0  0  0  0  0
    2.4183   -4.6873   13.8078 H   0  0  0  0  0  0  0  0  0  0  0  0
    4.1785   -7.7722   13.3574 H   0  0  0  0  0  0  0  0  0  0  0  0
    4.3722  -10.5531   13.1406 H   0  0  0  0  0  0  0  0  0  0  0  0
    3.7152  -10.8090   14.6218 H   0  0  0  0  0  0  0  0  0  0  0  0
    0.9996  -10.6116   12.1772 H   0  0  0  0  0  0  0  0  0  0  0  0
    2.6824  -10.3366   11.0781 H   0  0  0  0  0  0  0  0  0  0  0  0
    0.8714  -13.8570   12.6614 H   0  0  0  0  0  0  0  0  0  0  0  0
    1.2854  -12.7901   14.2525 H   0  0  0  0  0  0  0  0  0  0  0  0
   -0.3060  -11.9553   12.3379 H   0  0  0  0  0  0  0  0  0  0  0  0
   -1.0967  -11.1105   12.5281 H   0  0  0  0  0  0  0  0  0  0  0  0
   -1.0521  -10.8258   13.8594 H   0  0  0  0  0  0  0  0  0  0  0  0
   -2.0312  -15.3365   17.0046 H   0  0  0  0  0  0  0  0  0  0  0  0
   -2.3483  -15.8822   15.0765 H   0  0  0  0  0  0  0  0  0  0  0  0
   -4.0571  -15.6819   18.3945 H   0  0  0  0  0  0  0  0  0  0  0  0
   -6.4633  -16.7685   17.6460 H   0  0  0  0  0  0  0  0  0  0  0  0
   -4.5714  -15.7781   14.2335 H   0  0  0  0  0  0  0  0  0  0  0  0
    3.7304   -5.5800   17.8007 H   0  0  0  0  0  0  0  0  0  0  0  0
  1  2  1  0
  2  3  1  0
  3  4  1  0
  4  5  2  0
  5  6  1  0
  6  7  2  0
  6  8  1  0
  8  9  1  0
  9 10  1  0
 10 11  1  0
 10 12  1  0
 12 13  1  0
 13 14  1  0
 13 15  1  0
 15 16  2  0
 15 17  1  0
 17 18  1  0
 18 19  2  0
 19 20  1  0
 20 21  2  0
 21 22  1  0
  5 23  1  0
 23 24  2  0
 24  3  1  0
 22 18  1  0
  1 25  1  0
  1 26  1  0
  1 27  1  0
  2 28  1  0
  2 29  1  0
  4 30  1  0
  8 31  1  0
  9 32  1  0
  9 33  1  0
 10 34  1  0
 11 35  1  0
 12 36  1  0
 12 37  1  0
 14 38  1  0
 14 39  1  0
 14 40  1  0
 17 41  1  0
 17 42  1  0
 19 43  1  0
 20 44  1  0
 22 45  1  0
 23 46  1  0
M  END
>  <Energy>  (649) 
862.73425059013664

>  <compound_id>  (649) 
13540

>  <target_id>  (649) 
1

>  <reference_id>  (649) 
81

>  <inspiration_ids>  (649) 
[112, 81]

>  <energy_score>  (649) 
773.5641050683407

>  <distance_score>  (649) 
11.465466421015131

>  <path>  (649) 
/opt/xchem-fragalysis-2/maxwin/BulkDock/SCRATCH/511016/C13540-P81/C13540-P81.minimised.mol

>  <scratch_subdir>  (649) 
/opt/xchem-fragalysis-2/maxwin/BulkDock/SCRATCH/511016/C13540-P81

>  <fragmenstein_runtime>  (649) 
46.075358629226685

>  <fragmenstein_outcome>  (649) 
too moved

>  <fragmenstein_mode>  (649) 
expansion

>  <fragmenstein_error>  (649) 


$$$$
C41215-P82
     RDKit          3D

 41 43  0  0  0  0  0  0  0  0999 V2000
   -8.8236   -2.1752    8.2548 O   0  0  0  0  0  0  0  0  0  0  0  0
   -8.1814   -3.1219    7.8023 C   0  0  0  0  0  0  0  0  0  0  0  0
   -8.2423   -4.5702    8.3729 C   0  0  0  0  0  0  0  0  0  0  0  0
   -7.8159   -5.7955    7.5512 N   0  0  0  0  0  0  0  0  0  0  0  0
   -7.5968   -7.6341    8.2928 C   0  0  0  0  0  0  0  0  0  0  0  0
   -6.8077   -8.9432    8.8561 C   0  0  0  0  0  0  0  0  0  0  0  0
   -5.5708   -9.2528    9.6597 C   0  0  0  0  0  0  0  0  0  0  0  0
   -5.0526   -8.4404   10.3940 O   0  0  0  0  0  0  0  0  0  0  0  0
   -5.1916  -10.7345    9.3633 N   0  0  0  0  0  0  0  0  0  0  0  0
   -4.1688  -11.5601    9.9169 C   0  0  0  0  0  0  0  0  0  0  0  0
   -2.9515  -10.9521   10.2241 C   0  0  0  0  0  0  0  0  0  0  0  0
   -1.8167  -11.6974   10.4575 C   0  0  0  0  0  0  0  0  0  0  0  0
   -1.9744  -13.0578   10.4842 C   0  0  0  0  0  0  0  0  0  0  0  0
   -3.1710  -13.6836   10.3939 N   0  0  0  0  0  0  0  0  0  0  0  0
   -4.2989  -12.9466   10.2058 C   0  0  0  0  0  0  0  0  0  0  0  0
   -5.6452  -13.6466   10.6175 C   0  0  0  0  0  0  0  0  0  0  0  0
   -5.7887  -15.1627   10.6956 C   0  0  0  0  0  0  0  0  0  0  0  0
   -5.7334  -14.3864   11.9626 C   0  0  0  0  0  0  0  0  0  0  0  0
   -7.3286   -5.2175    6.3019 C   0  0  0  0  0  0  0  0  0  0  0  0
   -6.5333   -3.9089    6.2585 C   0  0  0  0  0  0  0  0  0  0  0  0
   -7.3021   -2.8519    6.8056 N   0  0  0  0  0  0  0  0  0  0  0  0
   -7.5917   -4.6722    9.2138 H   0  0  0  0  0  0  0  0  0  0  0  0
   -9.2706   -4.6365    8.6967 H   0  0  0  0  0  0  0  0  0  0  0  0
   -8.6110   -8.0796    8.2203 H   0  0  0  0  0  0  0  0  0  0  0  0
   -7.0188   -7.9635    7.4304 H   0  0  0  0  0  0  0  0  0  0  0  0
   -7.6093   -9.5487    9.3018 H   0  0  0  0  0  0  0  0  0  0  0  0
   -6.4850   -9.5177    7.9778 H   0  0  0  0  0  0  0  0  0  0  0  0
   -5.8921  -11.1471    8.7601 H   0  0  0  0  0  0  0  0  0  0  0  0
   -2.8709   -9.8859   10.3552 H   0  0  0  0  0  0  0  0  0  0  0  0
   -0.8603  -11.2330   10.6593 H   0  0  0  0  0  0  0  0  0  0  0  0
   -1.1271  -13.7155   10.6552 H   0  0  0  0  0  0  0  0  0  0  0  0
   -6.5397  -13.1113   10.3120 H   0  0  0  0  0  0  0  0  0  0  0  0
   -6.7374  -15.5957   10.4024 H   0  0  0  0  0  0  0  0  0  0  0  0
   -4.9285  -15.7698   10.4340 H   0  0  0  0  0  0  0  0  0  0  0  0
   -6.6450  -14.2840   12.5367 H   0  0  0  0  0  0  0  0  0  0  0  0
   -4.8282  -14.5045   12.5476 H   0  0  0  0  0  0  0  0  0  0  0  0
   -6.7971   -5.9277    5.7251 H   0  0  0  0  0  0  0  0  0  0  0  0
   -8.2578   -4.9044    5.8178 H   0  0  0  0  0  0  0  0  0  0  0  0
   -5.5809   -3.9152    6.7834 H   0  0  0  0  0  0  0  0  0  0  0  0
   -6.3419   -3.6592    5.2139 H   0  0  0  0  0  0  0  0  0  0  0  0
   -7.2614   -1.8983    6.4716 H   0  0  0  0  0  0  0  0  0  0  0  0
  1  2  2  0
  2  3  1  0
  3  4  1  0
  4  5  1  0
  5  6  1  0
  6  7  1  0
  7  8  2  0
  7  9  1  0
  9 10  1  0
 10 11  2  0
 11 12  1  0
 12 13  2  0
 13 14  1  0
 14 15  2  0
 15 16  1  0
 16 17  1  0
 17 18  1  0
  4 19  1  0
 19 20  1  0
 20 21  1  0
 21  2  1  0
 15 10  1  0
 18 16  1  0
  3 22  1  0
  3 23  1  0
  5 24  1  0
  5 25  1  0
  6 26  1  0
  6 27  1  0
  9 28  1  0
 11 29  1  0
 12 30  1  0
 13 31  1  0
 16 32  1  0
 17 33  1  0
 17 34  1  0
 18 35  1  0
 18 36  1  0
 19 37  1  0
 19 38  1  0
 20 39  1  0
 20 40  1  0
 21 41  1  0
M  END
>  <Energy>  (650) 
331.84018811881788

>  <compound_id>  (650) 
41215

>  <target_id>  (650) 
1

>  <reference_id>  (650) 
82

>  <inspiration_ids>  (650) 
[82, 24]

>  <energy_score>  (650) 
168.88790577393775

>  <distance_score>  (650) 
14.405889585552385

>  <path>  (650) 
/opt/xchem-fragalysis-2/maxwin/BulkDock/SCRATCH/511016/C41215-P82/C41215-P82.minimised.mol

>  <scratch_subdir>  (650) 
/opt/xchem-fragalysis-2/maxwin/BulkDock/SCRATCH/511016/C41215-P82

>  <fragmenstein_runtime>  (650) 
23.23874831199646

>  <fragmenstein_outcome>  (650) 
too moved

>  <fragmenstein_mode>  (650) 
expansion

>  <fragmenstein_error>  (650) 


$$$$
C41215-P24
     RDKit          3D

 41 43  0  0  0  0  0  0  0  0999 V2000
   -8.8186   -9.5892    9.1605 O   0  0  0  0  0  0  0  0  0  0  0  0
   -8.7319  -10.8120    9.1272 C   0  0  0  0  0  0  0  0  0  0  0  0
   -7.4015  -11.5755    8.8978 C   0  0  0  0  0  0  0  0  0  0  0  0
   -7.2902  -12.6249    9.9229 N   0  0  0  0  0  0  0  0  0  0  0  0
   -5.9495  -13.1879   10.1044 C   0  0  0  0  0  0  0  0  0  0  0  0
   -5.5317  -13.2027   11.6282 C   0  0  0  0  0  0  0  0  0  0  0  0
   -4.5499  -12.0207   11.8724 C   0  0  0  0  0  0  0  0  0  0  0  0
   -3.5658  -11.9833   11.1491 O   0  0  0  0  0  0  0  0  0  0  0  0
   -5.0798  -10.9523   13.0044 N   0  0  0  0  0  0  0  0  0  0  0  0
   -4.5224   -9.5035   13.4058 C   0  0  0  0  0  0  0  0  0  0  0  0
   -4.0589   -9.1806   11.6429 C   0  0  0  0  0  0  0  0  0  0  0  0
   -2.4038   -9.0992   11.3561 C   0  0  0  0  0  0  0  0  0  0  0  0
   -1.3212   -9.2471   12.5112 C   0  0  0  0  0  0  0  0  0  0  0  0
   -1.5835   -9.4368   14.0899 N   0  0  0  0  0  0  0  0  0  0  0  0
   -3.0545   -9.4509   14.8094 C   0  0  0  0  0  0  0  0  0  0  0  0
   -3.1034  -10.0131   16.5526 C   0  0  0  0  0  0  0  0  0  0  0  0
   -2.1127   -9.7517   17.6968 C   0  0  0  0  0  0  0  0  0  0  0  0
   -2.0629  -11.0643   17.0210 C   0  0  0  0  0  0  0  0  0  0  0  0
   -8.3839  -13.5767    9.7439 C   0  0  0  0  0  0  0  0  0  0  0  0
   -9.7418  -12.8591    9.9251 C   0  0  0  0  0  0  0  0  0  0  0  0
   -9.8570  -11.5903    9.2356 N   0  0  0  0  0  0  0  0  0  0  0  0
   -7.3885  -12.0030    7.8893 H   0  0  0  0  0  0  0  0  0  0  0  0
   -6.5831  -10.8511    8.9707 H   0  0  0  0  0  0  0  0  0  0  0  0
   -5.2125  -12.6479    9.4990 H   0  0  0  0  0  0  0  0  0  0  0  0
   -5.9333  -14.2215    9.7355 H   0  0  0  0  0  0  0  0  0  0  0  0
   -6.4299  -13.1483   12.2499 H   0  0  0  0  0  0  0  0  0  0  0  0
   -4.9986  -14.1316   11.8585 H   0  0  0  0  0  0  0  0  0  0  0  0
   -5.8754  -11.3257   13.4720 H   0  0  0  0  0  0  0  0  0  0  0  0
   -4.7172   -9.2349   10.7958 H   0  0  0  0  0  0  0  0  0  0  0  0
   -1.9537   -9.1091   10.3918 H   0  0  0  0  0  0  0  0  0  0  0  0
   -0.2578   -9.2717   12.2814 H   0  0  0  0  0  0  0  0  0  0  0  0
   -4.1218  -10.0738   16.9101 H   0  0  0  0  0  0  0  0  0  0  0  0
   -1.2309   -9.1340   17.5743 H   0  0  0  0  0  0  0  0  0  0  0  0
   -2.5040   -9.7173   18.7068 H   0  0  0  0  0  0  0  0  0  0  0  0
   -2.3630  -11.9174   17.6156 H   0  0  0  0  0  0  0  0  0  0  0  0
   -1.2223  -11.2542   16.3601 H   0  0  0  0  0  0  0  0  0  0  0  0
   -8.3221  -14.3833   10.4840 H   0  0  0  0  0  0  0  0  0  0  0  0
   -8.3342  -14.0398    8.7502 H   0  0  0  0  0  0  0  0  0  0  0  0
   -9.8955  -12.6471   10.9904 H   0  0  0  0  0  0  0  0  0  0  0  0
  -10.5635  -13.4987    9.5884 H   0  0  0  0  0  0  0  0  0  0  0  0
  -10.6754  -11.0275    9.4320 H   0  0  0  0  0  0  0  0  0  0  0  0
  1  2  2  0
  2  3  1  0
  3  4  1  0
  4  5  1  0
  5  6  1  0
  6  7  1  0
  7  8  2  0
  7  9  1  0
  9 10  1  0
 10 11  2  0
 11 12  1  0
 12 13  2  0
 13 14  1  0
 14 15  2  0
 15 16  1  0
 16 17  1  0
 17 18  1  0
  4 19  1  0
 19 20  1  0
 20 21  1  0
 21  2  1  0
 15 10  1  0
 18 16  1  0
  3 22  1  0
  3 23  1  0
  5 24  1  0
  5 25  1  0
  6 26  1  0
  6 27  1  0
  9 28  1  0
 11 29  1  0
 12 30  1  0
 13 31  1  0
 16 32  1  0
 17 33  1  0
 17 34  1  0
 18 35  1  0
 18 36  1  0
 19 37  1  0
 19 38  1  0
 20 39  1  0
 20 40  1  0
 21 41  1  0
M  END
>  <Energy>  (651) 
484.75386373400784

>  <compound_id>  (651) 
41215

>  <target_id>  (651) 
1

>  <reference_id>  (651) 
24

>  <inspiration_ids>  (651) 
[82, 24]

>  <energy_score>  (651) 
321.8015813891203

>  <distance_score>  (651) 
15.179422326692725

>  <path>  (651) 
/opt/xchem-fragalysis-2/maxwin/BulkDock/SCRATCH/511016/C41215-P24/C41215-P24.minimised.mol

>  <scratch_subdir>  (651) 
/opt/xchem-fragalysis-2/maxwin/BulkDock/SCRATCH/511016/C41215-P24

>  <fragmenstein_runtime>  (651) 
13.323312759399414

>  <fragmenstein_outcome>  (651) 
too moved

>  <fragmenstein_mode>  (651) 
expansion

>  <fragmenstein_error>  (651) 


$$$$
C41242-P82
     RDKit          3D

 46 48  0  0  0  0  0  0  0  0999 V2000
  -11.5647   -0.8293    9.6523 O   0  0  0  0  0  0  0  0  0  0  0  0
  -12.0497   -1.6141    8.8389 C   0  0  0  0  0  0  0  0  0  0  0  0
  -13.3348   -2.5830    9.1499 C   0  0  0  0  0  0  0  0  0  0  0  0
  -14.0836   -4.5155    9.1149 N   0  0  0  0  0  0  0  0  0  0  0  0
  -13.8257   -6.0409   10.6437 C   0  0  0  0  0  0  0  0  0  0  0  0
  -12.9431   -6.3088   12.5297 C   0  0  0  0  0  0  0  0  0  0  0  0
  -10.9361   -5.8450   13.1222 C   0  0  0  0  0  0  0  0  0  0  0  0
  -10.4094   -5.1404   12.2755 O   0  0  0  0  0  0  0  0  0  0  0  0
  -10.4159   -6.4200   14.2102 N   0  0  0  0  0  0  0  0  0  0  0  0
   -9.1103   -6.4989   14.6502 C   0  0  0  0  0  0  0  0  0  0  0  0
   -8.3228   -5.3365   13.9369 C   0  0  0  0  0  0  0  0  0  0  0  0
   -7.3794   -5.8692   12.7171 C   0  0  0  0  0  0  0  0  0  0  0  0
   -7.2353   -7.7546   12.3636 C   0  0  0  0  0  0  0  0  0  0  0  0
   -7.8130   -8.7369   13.2062 N   0  0  0  0  0  0  0  0  0  0  0  0
   -8.8542   -8.3051   14.0967 C   0  0  0  0  0  0  0  0  0  0  0  0
   -9.8251   -9.4648   14.2453 N   0  0  0  0  0  0  0  0  0  0  0  0
  -11.1631   -9.7542   13.6096 C   0  0  0  0  0  0  0  0  0  0  0  0
  -11.5360  -11.1828   14.0782 C   0  0  0  0  0  0  0  0  0  0  0  0
  -10.2137  -11.9110   14.0553 C   0  0  0  0  0  0  0  0  0  0  0  0
   -9.1926  -10.7778   13.8571 C   0  0  0  0  0  0  0  0  0  0  0  0
  -13.3109   -3.5658    7.5973 C   0  0  0  0  0  0  0  0  0  0  0  0
  -12.7127   -2.2099    6.7627 C   0  0  0  0  0  0  0  0  0  0  0  0
  -11.7276   -1.5674    7.5249 N   0  0  0  0  0  0  0  0  0  0  0  0
  -13.9073   -1.9652    8.3719 H   0  0  0  0  0  0  0  0  0  0  0  0
  -13.7194   -1.8907    9.9658 H   0  0  0  0  0  0  0  0  0  0  0  0
  -14.9145   -6.2756   10.8276 H   0  0  0  0  0  0  0  0  0  0  0  0
  -13.6478   -7.0099   10.0932 H   0  0  0  0  0  0  0  0  0  0  0  0
  -13.0552   -7.3900   12.6908 H   0  0  0  0  0  0  0  0  0  0  0  0
  -13.6190   -5.8565   13.2771 H   0  0  0  0  0  0  0  0  0  0  0  0
  -11.1319   -7.0030   14.6357 H   0  0  0  0  0  0  0  0  0  0  0  0
   -8.6051   -4.2927   13.9891 H   0  0  0  0  0  0  0  0  0  0  0  0
   -6.7955   -5.2772   12.0292 H   0  0  0  0  0  0  0  0  0  0  0  0
   -6.3792   -7.8563   11.6480 H   0  0  0  0  0  0  0  0  0  0  0  0
  -11.0681   -9.7927   12.5167 H   0  0  0  0  0  0  0  0  0  0  0  0
  -11.9779   -9.0669   13.8528 H   0  0  0  0  0  0  0  0  0  0  0  0
  -12.2724  -11.6391   13.4092 H   0  0  0  0  0  0  0  0  0  0  0  0
  -11.9633  -11.1847   15.0833 H   0  0  0  0  0  0  0  0  0  0  0  0
  -10.1584  -12.6115   13.2140 H   0  0  0  0  0  0  0  0  0  0  0  0
  -10.0452  -12.5052   14.9571 H   0  0  0  0  0  0  0  0  0  0  0  0
   -8.9570  -10.7763   12.7912 H   0  0  0  0  0  0  0  0  0  0  0  0
   -8.3149  -10.9499   14.4178 H   0  0  0  0  0  0  0  0  0  0  0  0
  -14.2636   -3.4613    7.0248 H   0  0  0  0  0  0  0  0  0  0  0  0
  -12.3802   -4.0041    7.3266 H   0  0  0  0  0  0  0  0  0  0  0  0
  -13.5138   -1.5040    6.5023 H   0  0  0  0  0  0  0  0  0  0  0  0
  -12.2288   -2.5049    5.8344 H   0  0  0  0  0  0  0  0  0  0  0  0
  -11.0542   -0.8878    7.1950 H   0  0  0  0  0  0  0  0  0  0  0  0
  1  2  2  0
  2  3  1  0
  3  4  1  0
  4  5  1  0
  5  6  1  0
  6  7  1  0
  7  8  2  0
  7  9  1  0
  9 10  1  0
 10 11  2  0
 11 12  1  0
 12 13  2  0
 13 14  1  0
 14 15  2  0
 15 16  1  0
 16 17  1  0
 17 18  1  0
 18 19  1  0
 19 20  1  0
  4 21  1  0
 21 22  1  0
 22 23  1  0
 23  2  1  0
 15 10  1  0
 20 16  1  0
  3 24  1  0
  3 25  1  0
  5 26  1  0
  5 27  1  0
  6 28  1  0
  6 29  1  0
  9 30  1  0
 11 31  1  0
 12 32  1  0
 13 33  1  0
 17 34  1  0
 17 35  1  0
 18 36  1  0
 18 37  1  0
 19 38  1  0
 19 39  1  0
 20 40  1  0
 20 41  1  0
 21 42  1  0
 21 43  1  0
 22 44  1  0
 22 45  1  0
 23 46  1  0
M  END
>  <Energy>  (652) 
1127.1357788848936

>  <compound_id>  (652) 
41242

>  <target_id>  (652) 
1

>  <reference_id>  (652) 
82

>  <inspiration_ids>  (652) 
[82, 24]

>  <energy_score>  (652) 
1001.9444805757392

>  <distance_score>  (652) 
15.001592866674763

>  <path>  (652) 
/opt/xchem-fragalysis-2/maxwin/BulkDock/SCRATCH/511016/C41242-P82/C41242-P82.minimised.mol

>  <scratch_subdir>  (652) 
/opt/xchem-fragalysis-2/maxwin/BulkDock/SCRATCH/511016/C41242-P82

>  <fragmenstein_runtime>  (652) 
26.88157343864441

>  <fragmenstein_outcome>  (652) 
too moved

>  <fragmenstein_mode>  (652) 
expansion

>  <fragmenstein_error>  (652) 


$$$$
C41242-P24
     RDKit          3D

 46 48  0  0  0  0  0  0  0  0999 V2000
  -12.6965   -0.8305   12.6153 O   0  0  0  0  0  0  0  0  0  0  0  0
  -13.4023   -1.4441   13.4149 C   0  0  0  0  0  0  0  0  0  0  0  0
  -12.8734   -2.0283   14.7353 C   0  0  0  0  0  0  0  0  0  0  0  0
  -13.6860   -3.1468   15.3304 N   0  0  0  0  0  0  0  0  0  0  0  0
  -13.1182   -3.4058   16.6791 C   0  0  0  0  0  0  0  0  0  0  0  0
  -13.7752   -4.4417   17.6838 C   0  0  0  0  0  0  0  0  0  0  0  0
  -13.0085   -4.3187   19.0322 C   0  0  0  0  0  0  0  0  0  0  0  0
  -12.6759   -3.1973   19.3180 O   0  0  0  0  0  0  0  0  0  0  0  0
  -12.7265   -5.5940   19.6917 N   0  0  0  0  0  0  0  0  0  0  0  0
  -11.8975   -5.9026   20.8093 C   0  0  0  0  0  0  0  0  0  0  0  0
  -11.0154   -4.8484   21.1420 C   0  0  0  0  0  0  0  0  0  0  0  0
   -9.7739   -5.0982   21.6878 C   0  0  0  0  0  0  0  0  0  0  0  0
   -9.4660   -6.4090   21.9258 C   0  0  0  0  0  0  0  0  0  0  0  0
  -10.3320   -7.4467   21.7612 N   0  0  0  0  0  0  0  0  0  0  0  0
  -11.5993   -7.2080   21.3140 C   0  0  0  0  0  0  0  0  0  0  0  0
  -12.5763   -8.2356   21.5058 N   0  0  0  0  0  0  0  0  0  0  0  0
  -13.4409   -7.9791   22.6958 C   0  0  0  0  0  0  0  0  0  0  0  0
  -13.4938   -9.2895   23.5118 C   0  0  0  0  0  0  0  0  0  0  0  0
  -13.1410  -10.3504   22.4945 C   0  0  0  0  0  0  0  0  0  0  0  0
  -12.0686   -9.6187   21.6919 C   0  0  0  0  0  0  0  0  0  0  0  0
  -15.0860   -2.7217   15.3552 C   0  0  0  0  0  0  0  0  0  0  0  0
  -15.5882   -2.4580   13.9248 C   0  0  0  0  0  0  0  0  0  0  0  0
  -14.7432   -1.5633   13.1696 N   0  0  0  0  0  0  0  0  0  0  0  0
  -11.8970   -2.4655   14.5468 H   0  0  0  0  0  0  0  0  0  0  0  0
  -12.7749   -1.1850   15.4300 H   0  0  0  0  0  0  0  0  0  0  0  0
  -12.0778   -3.7316   16.5438 H   0  0  0  0  0  0  0  0  0  0  0  0
  -13.0721   -2.4387   17.1974 H   0  0  0  0  0  0  0  0  0  0  0  0
  -13.7083   -5.4513   17.2751 H   0  0  0  0  0  0  0  0  0  0  0  0
  -14.8237   -4.1936   17.8725 H   0  0  0  0  0  0  0  0  0  0  0  0
  -13.2372   -6.3305   19.2209 H   0  0  0  0  0  0  0  0  0  0  0  0
  -11.2303   -3.8163   20.8852 H   0  0  0  0  0  0  0  0  0  0  0  0
   -9.0709   -4.3001   21.8911 H   0  0  0  0  0  0  0  0  0  0  0  0
   -8.4962   -6.6717   22.3404 H   0  0  0  0  0  0  0  0  0  0  0  0
  -13.0829   -7.1569   23.3274 H   0  0  0  0  0  0  0  0  0  0  0  0
  -14.4437   -7.7214   22.3365 H   0  0  0  0  0  0  0  0  0  0  0  0
  -14.4710   -9.4481   23.9762 H   0  0  0  0  0  0  0  0  0  0  0  0
  -12.7389   -9.2590   24.3068 H   0  0  0  0  0  0  0  0  0  0  0  0
  -14.0062  -10.5802   21.8621 H   0  0  0  0  0  0  0  0  0  0  0  0
  -12.7749  -11.2756   22.9470 H   0  0  0  0  0  0  0  0  0  0  0  0
  -11.1614   -9.6257   22.3031 H   0  0  0  0  0  0  0  0  0  0  0  0
  -11.9089  -10.0965   20.7218 H   0  0  0  0  0  0  0  0  0  0  0  0
  -15.7160   -3.5017   15.7964 H   0  0  0  0  0  0  0  0  0  0  0  0
  -15.2081   -1.8150   15.9623 H   0  0  0  0  0  0  0  0  0  0  0  0
  -16.5898   -2.0169   13.9529 H   0  0  0  0  0  0  0  0  0  0  0  0
  -15.6561   -3.3966   13.3681 H   0  0  0  0  0  0  0  0  0  0  0  0
  -15.0624   -1.1442   12.3067 H   0  0  0  0  0  0  0  0  0  0  0  0
  1  2  2  0
  2  3  1  0
  3  4  1  0
  4  5  1  0
  5  6  1  0
  6  7  1  0
  7  8  2  0
  7  9  1  0
  9 10  1  0
 10 11  2  0
 11 12  1  0
 12 13  2  0
 13 14  1  0
 14 15  2  0
 15 16  1  0
 16 17  1  0
 17 18  1  0
 18 19  1  0
 19 20  1  0
  4 21  1  0
 21 22  1  0
 22 23  1  0
 23  2  1  0
 15 10  1  0
 20 16  1  0
  3 24  1  0
  3 25  1  0
  5 26  1  0
  5 27  1  0
  6 28  1  0
  6 29  1  0
  9 30  1  0
 11 31  1  0
 12 32  1  0
 13 33  1  0
 17 34  1  0
 17 35  1  0
 18 36  1  0
 18 37  1  0
 19 38  1  0
 19 39  1  0
 20 40  1  0
 20 41  1  0
 21 42  1  0
 21 43  1  0
 22 44  1  0
 22 45  1  0
 23 46  1  0
M  END
>  <Energy>  (653) 
100.67385598799801

>  <compound_id>  (653) 
41242

>  <target_id>  (653) 
1

>  <reference_id>  (653) 
24

>  <inspiration_ids>  (653) 
[82, 24]

>  <energy_score>  (653) 
-24.517442321165788

>  <distance_score>  (653) 
15.526734476568715

>  <path>  (653) 
/opt/xchem-fragalysis-2/maxwin/BulkDock/SCRATCH/511016/C41242-P24/C41242-P24.minimised.mol

>  <scratch_subdir>  (653) 
/opt/xchem-fragalysis-2/maxwin/BulkDock/SCRATCH/511016/C41242-P24

>  <fragmenstein_runtime>  (653) 
24.881515741348267

>  <fragmenstein_outcome>  (653) 
too moved

>  <fragmenstein_mode>  (653) 
expansion

>  <fragmenstein_error>  (653) 


$$$$
C13410-P127
     RDKit          3D

 44 45  0  0  0  0  0  0  0  0999 V2000
  -14.7790  -16.9004   14.9019 C   0  0  0  0  0  0  0  0  0  0  0  0
  -13.1620  -15.8505   14.5412 C   0  0  0  0  0  0  0  0  0  0  0  0
  -11.7901  -15.4005   13.2836 C   0  0  0  0  0  0  0  0  0  0  0  0
  -12.7538  -17.4559   15.4386 C   0  0  0  0  0  0  0  0  0  0  0  0
  -13.3537  -14.3546   15.3058 O   0  0  0  0  0  0  0  0  0  0  0  0
  -12.7445  -13.4151   14.6574 C   0  0  0  0  0  0  0  0  0  0  0  0
  -13.0511  -13.4814   13.4735 O   0  0  0  0  0  0  0  0  0  0  0  0
  -11.3995  -12.1806   15.4546 C   0  0  0  0  0  0  0  0  0  0  0  0
  -10.5510  -12.4634   16.4809 N   0  0  0  0  0  0  0  0  0  0  0  0
  -10.6149  -11.4431   17.3609 N   0  0  0  0  0  0  0  0  0  0  0  0
  -11.3428  -10.3331   17.0165 C   0  0  0  0  0  0  0  0  0  0  0  0
  -11.3382  -10.3912   15.6370 C   0  0  0  0  0  0  0  0  0  0  0  0
  -10.5448   -9.1469   15.1372 N   0  0  0  0  0  0  0  0  0  0  0  0
  -10.6688   -7.6229   15.5326 C   0  0  0  0  0  0  0  0  0  0  0  0
  -11.4683   -7.0620   16.2568 O   0  0  0  0  0  0  0  0  0  0  0  0
   -9.4013   -6.4615   14.9828 C   0  0  0  0  0  0  0  0  0  0  0  0
   -9.5019   -4.7340   14.2761 C   0  0  0  0  0  0  0  0  0  0  0  0
   -9.6429   -3.4638   12.8768 C   0  0  0  0  0  0  0  0  0  0  0  0
  -10.5099   -2.0035   12.1674 N   0  0  0  0  0  0  0  0  0  0  0  0
  -11.5830   -1.1447   12.5477 C   0  0  0  0  0  0  0  0  0  0  0  0
  -11.9114   -0.3209   11.4883 C   0  0  0  0  0  0  0  0  0  0  0  0
  -11.1000   -0.7494   10.4491 C   0  0  0  0  0  0  0  0  0  0  0  0
  -10.3575   -1.7930   10.7992 N   0  0  0  0  0  0  0  0  0  0  0  0
  -14.5462  -17.9323   14.7439 H   0  0  0  0  0  0  0  0  0  0  0  0
  -15.2774  -16.5150   15.8054 H   0  0  0  0  0  0  0  0  0  0  0  0
  -15.6473  -16.8980   14.2126 H   0  0  0  0  0  0  0  0  0  0  0  0
  -12.1653  -14.8432   12.4176 H   0  0  0  0  0  0  0  0  0  0  0  0
  -11.1850  -16.2606   12.9247 H   0  0  0  0  0  0  0  0  0  0  0  0
  -10.9882  -14.7103   13.5634 H   0  0  0  0  0  0  0  0  0  0  0  0
  -12.4224  -17.8364   14.5111 H   0  0  0  0  0  0  0  0  0  0  0  0
  -12.0716  -17.4481   16.2754 H   0  0  0  0  0  0  0  0  0  0  0  0
  -13.4423  -18.0752   15.9659 H   0  0  0  0  0  0  0  0  0  0  0  0
  -10.1307  -11.5798   18.2410 H   0  0  0  0  0  0  0  0  0  0  0  0
  -11.3464   -9.4939   17.6995 H   0  0  0  0  0  0  0  0  0  0  0  0
   -9.8115   -9.2577   14.4445 H   0  0  0  0  0  0  0  0  0  0  0  0
   -8.5590   -7.0597   14.6246 H   0  0  0  0  0  0  0  0  0  0  0  0
   -9.0088   -6.1802   15.9782 H   0  0  0  0  0  0  0  0  0  0  0  0
  -10.2722   -5.2116   13.6931 H   0  0  0  0  0  0  0  0  0  0  0  0
   -9.7665   -4.1651   15.1739 H   0  0  0  0  0  0  0  0  0  0  0  0
  -10.5009   -3.2703   13.4978 H   0  0  0  0  0  0  0  0  0  0  0  0
   -9.7332   -4.0700   11.9721 H   0  0  0  0  0  0  0  0  0  0  0  0
  -11.9548   -1.0948   13.5575 H   0  0  0  0  0  0  0  0  0  0  0  0
  -12.6374    0.4784   11.4902 H   0  0  0  0  0  0  0  0  0  0  0  0
  -11.0448   -0.3914    9.4297 H   0  0  0  0  0  0  0  0  0  0  0  0
  1  2  1  0
  2  3  1  0
  2  4  1  0
  2  5  1  0
  5  6  1  0
  6  7  2  0
  6  8  1  0
  8  9  2  0
  9 10  1  0
 10 11  1  0
 11 12  2  0
 12 13  1  0
 13 14  1  0
 14 15  2  0
 14 16  1  0
 16 17  1  0
 17 18  1  0
 18 19  1  0
 19 20  1  0
 20 21  2  0
 21 22  1  0
 22 23  2  0
 12  8  1  0
 23 19  1  0
  1 24  1  0
  1 25  1  0
  1 26  1  0
  3 27  1  0
  3 28  1  0
  3 29  1  0
  4 30  1  0
  4 31  1  0
  4 32  1  0
 10 33  1  0
 11 34  1  0
 13 35  1  0
 16 36  1  0
 16 37  1  0
 17 38  1  0
 17 39  1  0
 18 40  1  0
 18 41  1  0
 20 42  1  0
 21 43  1  0
 22 44  1  0
M  END
>  <Energy>  (654) 
795.11982889386366

>  <compound_id>  (654) 
13410

>  <target_id>  (654) 
1

>  <reference_id>  (654) 
127

>  <inspiration_ids>  (654) 
[127, 112]

>  <energy_score>  (654) 
710.0092073693056

>  <distance_score>  (654) 
9.94077493416171

>  <path>  (654) 
/opt/xchem-fragalysis-2/maxwin/BulkDock/SCRATCH/511016/C13410-P127/C13410-P127.minimised.mol

>  <scratch_subdir>  (654) 
/opt/xchem-fragalysis-2/maxwin/BulkDock/SCRATCH/511016/C13410-P127

>  <fragmenstein_runtime>  (654) 
55.285497426986694

>  <fragmenstein_outcome>  (654) 
too moved

>  <fragmenstein_mode>  (654) 
expansion

>  <fragmenstein_error>  (654) 


$$$$
C13410-P112
     RDKit          3D

 44 45  0  0  0  0  0  0  0  0999 V2000
  -12.2737  -14.7764   13.6567 C   0  0  0  0  0  0  0  0  0  0  0  0
  -12.6225  -14.7489   12.0476 C   0  0  0  0  0  0  0  0  0  0  0  0
  -10.8712  -14.0068   11.9818 C   0  0  0  0  0  0  0  0  0  0  0  0
  -12.3666  -16.6864   11.1603 C   0  0  0  0  0  0  0  0  0  0  0  0
  -13.2385  -13.2429   10.9692 O   0  0  0  0  0  0  0  0  0  0  0  0
  -14.0932  -11.6416   10.3815 C   0  0  0  0  0  0  0  0  0  0  0  0
  -15.2976  -11.5288   10.6663 O   0  0  0  0  0  0  0  0  0  0  0  0
  -13.5971  -10.2951    9.3706 C   0  0  0  0  0  0  0  0  0  0  0  0
  -12.3800   -9.7352    9.5825 N   0  0  0  0  0  0  0  0  0  0  0  0
  -12.1328   -9.0005    8.5460 N   0  0  0  0  0  0  0  0  0  0  0  0
  -13.1781   -8.8485    7.7730 C   0  0  0  0  0  0  0  0  0  0  0  0
  -14.2487   -9.2450    8.4883 C   0  0  0  0  0  0  0  0  0  0  0  0
  -15.2509   -8.7199    7.7104 N   0  0  0  0  0  0  0  0  0  0  0  0
  -15.7144   -7.3400    7.5473 C   0  0  0  0  0  0  0  0  0  0  0  0
  -15.3891   -6.3343    8.1132 O   0  0  0  0  0  0  0  0  0  0  0  0
  -16.7176   -7.2283    6.3617 C   0  0  0  0  0  0  0  0  0  0  0  0
  -16.8876   -5.8532    5.6868 C   0  0  0  0  0  0  0  0  0  0  0  0
  -17.6248   -4.7968    6.5281 C   0  0  0  0  0  0  0  0  0  0  0  0
  -17.8204   -3.4885    5.9095 N   0  0  0  0  0  0  0  0  0  0  0  0
  -17.7805   -2.2794    6.5662 C   0  0  0  0  0  0  0  0  0  0  0  0
  -17.6879   -1.3168    5.5883 C   0  0  0  0  0  0  0  0  0  0  0  0
  -17.7549   -2.0333    4.3787 C   0  0  0  0  0  0  0  0  0  0  0  0
  -17.8782   -3.3504    4.5672 N   0  0  0  0  0  0  0  0  0  0  0  0
  -12.7497  -14.0140   14.2397 H   0  0  0  0  0  0  0  0  0  0  0  0
  -11.2056  -14.8108   13.8818 H   0  0  0  0  0  0  0  0  0  0  0  0
  -12.5302  -15.6361   14.2563 H   0  0  0  0  0  0  0  0  0  0  0  0
  -10.6473  -13.5373   11.0188 H   0  0  0  0  0  0  0  0  0  0  0  0
  -10.1835  -14.7963   12.2704 H   0  0  0  0  0  0  0  0  0  0  0  0
  -10.5970  -13.1520   12.5713 H   0  0  0  0  0  0  0  0  0  0  0  0
  -11.3946  -16.9482   11.4367 H   0  0  0  0  0  0  0  0  0  0  0  0
  -13.1312  -17.4197   10.8460 H   0  0  0  0  0  0  0  0  0  0  0  0
  -12.3340  -16.7631   10.0213 H   0  0  0  0  0  0  0  0  0  0  0  0
  -11.1583   -8.9030    8.2763 H   0  0  0  0  0  0  0  0  0  0  0  0
  -13.1488   -8.6128    6.7284 H   0  0  0  0  0  0  0  0  0  0  0  0
  -15.6796   -9.2941    7.0140 H   0  0  0  0  0  0  0  0  0  0  0  0
  -17.7114   -7.5221    6.6919 H   0  0  0  0  0  0  0  0  0  0  0  0
  -16.3974   -7.9318    5.5832 H   0  0  0  0  0  0  0  0  0  0  0  0
  -15.9303   -5.5062    5.3179 H   0  0  0  0  0  0  0  0  0  0  0  0
  -17.4861   -6.0242    4.7809 H   0  0  0  0  0  0  0  0  0  0  0  0
  -18.6278   -5.1538    6.7879 H   0  0  0  0  0  0  0  0  0  0  0  0
  -17.0839   -4.6094    7.4497 H   0  0  0  0  0  0  0  0  0  0  0  0
  -17.7554   -2.2190    7.6455 H   0  0  0  0  0  0  0  0  0  0  0  0
  -17.6000   -0.2489    5.7283 H   0  0  0  0  0  0  0  0  0  0  0  0
  -17.7335   -1.6490    3.3671 H   0  0  0  0  0  0  0  0  0  0  0  0
  1  2  1  0
  2  3  1  0
  2  4  1  0
  2  5  1  0
  5  6  1  0
  6  7  2  0
  6  8  1  0
  8  9  2  0
  9 10  1  0
 10 11  1  0
 11 12  2  0
 12 13  1  0
 13 14  1  0
 14 15  2  0
 14 16  1  0
 16 17  1  0
 17 18  1  0
 18 19  1  0
 19 20  1  0
 20 21  2  0
 21 22  1  0
 22 23  2  0
 12  8  1  0
 23 19  1  0
  1 24  1  0
  1 25  1  0
  1 26  1  0
  3 27  1  0
  3 28  1  0
  3 29  1  0
  4 30  1  0
  4 31  1  0
  4 32  1  0
 10 33  1  0
 11 34  1  0
 13 35  1  0
 16 36  1  0
 16 37  1  0
 17 38  1  0
 17 39  1  0
 18 40  1  0
 18 41  1  0
 20 42  1  0
 21 43  1  0
 22 44  1  0
M  END
>  <Energy>  (655) 
583.49225585420697

>  <compound_id>  (655) 
13410

>  <target_id>  (655) 
1

>  <reference_id>  (655) 
112

>  <inspiration_ids>  (655) 
[127, 112]

>  <energy_score>  (655) 
498.3816343296555

>  <distance_score>  (655) 
10.600333130742847

>  <path>  (655) 
/opt/xchem-fragalysis-2/maxwin/BulkDock/SCRATCH/511016/C13410-P112/C13410-P112.minimised.mol

>  <scratch_subdir>  (655) 
/opt/xchem-fragalysis-2/maxwin/BulkDock/SCRATCH/511016/C13410-P112

>  <fragmenstein_runtime>  (655) 
53.83536911010742

>  <fragmenstein_outcome>  (655) 
too moved

>  <fragmenstein_mode>  (655) 
expansion

>  <fragmenstein_error>  (655) 


$$$$
C13433-P127
     RDKit          3D

 51 53  0  0  0  0  0  0  0  0999 V2000
  -10.1312   -8.5108   14.4098 O   0  0  0  0  0  0  0  0  0  0  0  0
  -11.3371   -8.7704   14.3384 C   0  0  0  0  0  0  0  0  0  0  0  0
  -11.7048  -10.5722   15.0279 C   0  0  0  0  0  0  0  0  0  0  0  0
  -11.2983  -12.4355   15.0459 N   0  0  0  0  0  0  0  0  0  0  0  0
  -10.0577  -13.0534   14.0224 C   0  0  0  0  0  0  0  0  0  0  0  0
  -10.5910  -14.1137   13.2128 C   0  0  0  0  0  0  0  0  0  0  0  0
  -12.1024  -14.3349   13.4359 C   0  0  0  0  0  0  0  0  0  0  0  0
  -12.6895  -13.4968   14.5020 N   0  0  0  0  0  0  0  0  0  0  0  0
  -12.6587   -7.6959   13.8630 N   0  0  0  0  0  0  0  0  0  0  0  0
  -12.6715   -5.7702   13.4576 C   0  0  0  0  0  0  0  0  0  0  0  0
  -14.0136   -4.1385   12.6676 C   0  0  0  0  0  0  0  0  0  0  0  0
  -15.7452   -4.1952   13.3541 C   0  0  0  0  0  0  0  0  0  0  0  0
  -16.3900   -2.9821   13.6997 O   0  0  0  0  0  0  0  0  0  0  0  0
  -12.8724   -2.2047   12.2294 N   0  0  0  0  0  0  0  0  0  0  0  0
  -11.7078   -1.3607   11.4461 C   0  0  0  0  0  0  0  0  0  0  0  0
  -11.7408   -0.7459   10.0801 C   0  0  0  0  0  0  0  0  0  0  0  0
  -12.7793   -0.3443    9.2139 C   0  0  0  0  0  0  0  0  0  0  0  0
  -12.1424    0.0328    8.0475 C   0  0  0  0  0  0  0  0  0  0  0  0
  -10.8077   -0.1687    8.2633 N   0  0  0  0  0  0  0  0  0  0  0  0
   -9.7374   -0.1735    7.2826 C   0  0  0  0  0  0  0  0  0  0  0  0
   -8.5332    0.7250    7.6299 C   0  0  0  0  0  0  0  0  0  0  0  0
   -7.2855   -0.1443    7.4668 C   0  0  0  0  0  0  0  0  0  0  0  0
   -7.7229   -1.2912    6.5718 C   0  0  0  0  0  0  0  0  0  0  0  0
   -9.1418   -1.5709    7.0418 C   0  0  0  0  0  0  0  0  0  0  0  0
  -10.5398   -0.4555    9.5423 N   0  0  0  0  0  0  0  0  0  0  0  0
  -12.8519  -10.3088   14.8525 H   0  0  0  0  0  0  0  0  0  0  0  0
  -11.9641  -10.9627   16.0649 H   0  0  0  0  0  0  0  0  0  0  0  0
   -9.2192  -12.3705   14.0038 H   0  0  0  0  0  0  0  0  0  0  0  0
  -10.2214  -14.3704   12.2527 H   0  0  0  0  0  0  0  0  0  0  0  0
  -12.7538  -14.6981   12.6894 H   0  0  0  0  0  0  0  0  0  0  0  0
  -13.5322   -8.2256   13.8178 H   0  0  0  0  0  0  0  0  0  0  0  0
  -11.5905   -5.7288   13.2868 H   0  0  0  0  0  0  0  0  0  0  0  0
  -12.9799   -5.8040   14.5499 H   0  0  0  0  0  0  0  0  0  0  0  0
  -14.2664   -4.4292   13.8380 H   0  0  0  0  0  0  0  0  0  0  0  0
  -16.3324   -4.8564   12.7439 H   0  0  0  0  0  0  0  0  0  0  0  0
  -15.7994   -4.7834   14.3007 H   0  0  0  0  0  0  0  0  0  0  0  0
  -16.6754   -2.5738   12.8573 H   0  0  0  0  0  0  0  0  0  0  0  0
  -12.3693   -1.8135   13.1126 H   0  0  0  0  0  0  0  0  0  0  0  0
  -10.7331   -1.8047   11.6342 H   0  0  0  0  0  0  0  0  0  0  0  0
  -11.7270   -0.4457   12.0608 H   0  0  0  0  0  0  0  0  0  0  0  0
  -13.8441   -0.4041    9.3845 H   0  0  0  0  0  0  0  0  0  0  0  0
  -12.5257    0.3421    7.0869 H   0  0  0  0  0  0  0  0  0  0  0  0
  -10.1749    0.1897    6.3429 H   0  0  0  0  0  0  0  0  0  0  0  0
   -8.5785    1.1581    8.6344 H   0  0  0  0  0  0  0  0  0  0  0  0
   -8.4934    1.5634    6.9238 H   0  0  0  0  0  0  0  0  0  0  0  0
   -6.4451    0.4151    7.0451 H   0  0  0  0  0  0  0  0  0  0  0  0
   -6.9717   -0.5300    8.4429 H   0  0  0  0  0  0  0  0  0  0  0  0
   -7.0726   -2.1654    6.6673 H   0  0  0  0  0  0  0  0  0  0  0  0
   -7.7255   -0.9752    5.5221 H   0  0  0  0  0  0  0  0  0  0  0  0
   -9.7164   -2.1384    6.3027 H   0  0  0  0  0  0  0  0  0  0  0  0
   -9.1138   -2.1638    7.9640 H   0  0  0  0  0  0  0  0  0  0  0  0
  1  2  2  0
  2  3  1  0
  3  4  1  0
  4  5  1  0
  5  6  2  0
  6  7  1  0
  7  8  2  0
  2  9  1  0
  9 10  1  0
 10 11  1  0
 11 12  1  0
 12 13  1  0
 11 14  1  0
 14 15  1  0
 15 16  1  0
 16 17  1  0
 17 18  2  0
 18 19  1  0
 19 20  1  0
 20 21  1  0
 21 22  1  0
 22 23  1  0
 23 24  1  0
 19 25  1  0
  8  4  1  0
 25 16  2  0
 24 20  1  0
  3 26  1  0
  3 27  1  0
  5 28  1  0
  6 29  1  0
  7 30  1  0
  9 31  1  0
 10 32  1  0
 10 33  1  0
 11 34  1  0
 12 35  1  0
 12 36  1  0
 13 37  1  0
 14 38  1  0
 15 39  1  0
 15 40  1  0
 17 41  1  0
 18 42  1  0
 20 43  1  0
 21 44  1  0
 21 45  1  0
 22 46  1  0
 22 47  1  0
 23 48  1  0
 23 49  1  0
 24 50  1  0
 24 51  1  0
M  END
>  <Energy>  (656) 
1127.6552886085881

>  <compound_id>  (656) 
13433

>  <target_id>  (656) 
1

>  <reference_id>  (656) 
127

>  <inspiration_ids>  (656) 
[127, 112]

>  <energy_score>  (656) 
1008.6838300812769

>  <distance_score>  (656) 
6.79561005167345

>  <path>  (656) 
/opt/xchem-fragalysis-2/maxwin/BulkDock/SCRATCH/511016/C13433-P127/C13433-P127.minimised.mol

>  <scratch_subdir>  (656) 
/opt/xchem-fragalysis-2/maxwin/BulkDock/SCRATCH/511016/C13433-P127

>  <fragmenstein_runtime>  (656) 
27.105292797088623

>  <fragmenstein_outcome>  (656) 
too moved

>  <fragmenstein_mode>  (656) 
expansion

>  <fragmenstein_error>  (656) 


$$$$
C13433-P112
     RDKit          3D

 51 53  0  0  0  0  0  0  0  0999 V2000
  -16.0614   -9.7288    8.2494 O   0  0  0  0  0  0  0  0  0  0  0  0
  -15.4840   -9.2316    7.3241 C   0  0  0  0  0  0  0  0  0  0  0  0
  -14.8991  -10.1569    6.2322 C   0  0  0  0  0  0  0  0  0  0  0  0
  -14.9872  -11.6253    6.4440 N   0  0  0  0  0  0  0  0  0  0  0  0
  -16.0979  -12.3643    6.7649 C   0  0  0  0  0  0  0  0  0  0  0  0
  -15.8506  -13.6557    6.3641 C   0  0  0  0  0  0  0  0  0  0  0  0
  -14.5339  -13.6402    5.8891 C   0  0  0  0  0  0  0  0  0  0  0  0
  -13.9887  -12.4208    5.9519 N   0  0  0  0  0  0  0  0  0  0  0  0
  -15.1356   -7.8254    7.0557 N   0  0  0  0  0  0  0  0  0  0  0  0
  -15.3092   -6.5652    7.9202 C   0  0  0  0  0  0  0  0  0  0  0  0
  -14.9498   -4.5086    8.0948 C   0  0  0  0  0  0  0  0  0  0  0  0
  -16.6000   -3.4287    8.0406 C   0  0  0  0  0  0  0  0  0  0  0  0
  -16.6866   -2.2500    7.2136 O   0  0  0  0  0  0  0  0  0  0  0  0
  -13.8292   -3.4551    7.6184 N   0  0  0  0  0  0  0  0  0  0  0  0
  -13.5797   -2.0481    8.0038 C   0  0  0  0  0  0  0  0  0  0  0  0
  -12.5009   -1.4017    7.1525 C   0  0  0  0  0  0  0  0  0  0  0  0
  -12.6752   -0.5171    6.0590 C   0  0  0  0  0  0  0  0  0  0  0  0
  -11.4042   -0.1838    5.6506 C   0  0  0  0  0  0  0  0  0  0  0  0
  -10.5571   -0.8811    6.4634 N   0  0  0  0  0  0  0  0  0  0  0  0
   -9.1185   -0.9551    6.3408 C   0  0  0  0  0  0  0  0  0  0  0  0
   -8.3378   -0.3018    7.4816 C   0  0  0  0  0  0  0  0  0  0  0  0
   -6.9291   -0.8897    7.3745 C   0  0  0  0  0  0  0  0  0  0  0  0
   -7.0441   -2.1336    6.4908 C   0  0  0  0  0  0  0  0  0  0  0  0
   -8.5385   -2.3707    6.3072 C   0  0  0  0  0  0  0  0  0  0  0  0
  -11.1952   -1.5386    7.4398 N   0  0  0  0  0  0  0  0  0  0  0  0
  -15.4162   -9.9639    5.2862 H   0  0  0  0  0  0  0  0  0  0  0  0
  -13.8318   -9.9323    6.1221 H   0  0  0  0  0  0  0  0  0  0  0  0
  -16.9829  -11.9007    7.1806 H   0  0  0  0  0  0  0  0  0  0  0  0
  -16.5496  -14.4750    6.3967 H   0  0  0  0  0  0  0  0  0  0  0  0
  -13.9537  -14.4569    5.4808 H   0  0  0  0  0  0  0  0  0  0  0  0
  -14.5729   -7.7778    6.2162 H   0  0  0  0  0  0  0  0  0  0  0  0
  -14.2901   -6.8953    8.2273 H   0  0  0  0  0  0  0  0  0  0  0  0
  -16.3093   -6.7727    8.3625 H   0  0  0  0  0  0  0  0  0  0  0  0
  -14.5238   -4.8514    8.9505 H   0  0  0  0  0  0  0  0  0  0  0  0
  -16.8181   -2.9045    8.9414 H   0  0  0  0  0  0  0  0  0  0  0  0
  -17.5081   -4.0138    7.8521 H   0  0  0  0  0  0  0  0  0  0  0  0
  -16.4823   -2.4484    6.2767 H   0  0  0  0  0  0  0  0  0  0  0  0
  -12.9551   -3.9244    7.3737 H   0  0  0  0  0  0  0  0  0  0  0  0
  -14.4827   -1.4409    7.8907 H   0  0  0  0  0  0  0  0  0  0  0  0
  -13.2376   -1.9418    9.0351 H   0  0  0  0  0  0  0  0  0  0  0  0
  -13.6103   -0.1966    5.6254 H   0  0  0  0  0  0  0  0  0  0  0  0
  -11.0468    0.4362    4.8429 H   0  0  0  0  0  0  0  0  0  0  0  0
   -8.8540   -0.4498    5.4012 H   0  0  0  0  0  0  0  0  0  0  0  0
   -8.7715   -0.5561    8.4561 H   0  0  0  0  0  0  0  0  0  0  0  0
   -8.3315    0.7904    7.4045 H   0  0  0  0  0  0  0  0  0  0  0  0
   -6.2383   -0.1690    6.9231 H   0  0  0  0  0  0  0  0  0  0  0  0
   -6.5385   -1.1359    8.3666 H   0  0  0  0  0  0  0  0  0  0  0  0
   -6.5414   -3.0020    6.9261 H   0  0  0  0  0  0  0  0  0  0  0  0
   -6.5756   -1.9368    5.5190 H   0  0  0  0  0  0  0  0  0  0  0  0
   -8.7624   -2.8919    5.3710 H   0  0  0  0  0  0  0  0  0  0  0  0
   -8.9224   -2.9839    7.1318 H   0  0  0  0  0  0  0  0  0  0  0  0
  1  2  2  0
  2  3  1  0
  3  4  1  0
  4  5  1  0
  5  6  2  0
  6  7  1  0
  7  8  2  0
  2  9  1  0
  9 10  1  0
 10 11  1  0
 11 12  1  0
 12 13  1  0
 11 14  1  0
 14 15  1  0
 15 16  1  0
 16 17  1  0
 17 18  2  0
 18 19  1  0
 19 20  1  0
 20 21  1  0
 21 22  1  0
 22 23  1  0
 23 24  1  0
 19 25  1  0
  8  4  1  0
 25 16  2  0
 24 20  1  0
  3 26  1  0
  3 27  1  0
  5 28  1  0
  6 29  1  0
  7 30  1  0
  9 31  1  0
 10 32  1  0
 10 33  1  0
 11 34  1  0
 12 35  1  0
 12 36  1  0
 13 37  1  0
 14 38  1  0
 15 39  1  0
 15 40  1  0
 17 41  1  0
 18 42  1  0
 20 43  1  0
 21 44  1  0
 21 45  1  0
 22 46  1  0
 22 47  1  0
 23 48  1  0
 23 49  1  0
 24 50  1  0
 24 51  1  0
M  END
>  <Energy>  (657) 
308.09771087609943

>  <compound_id>  (657) 
13433

>  <target_id>  (657) 
1

>  <reference_id>  (657) 
112

>  <inspiration_ids>  (657) 
[127, 112]

>  <energy_score>  (657) 
189.12625234878476

>  <distance_score>  (657) 
8.043925446580415

>  <path>  (657) 
/opt/xchem-fragalysis-2/maxwin/BulkDock/SCRATCH/511016/C13433-P112/C13433-P112.minimised.mol

>  <scratch_subdir>  (657) 
/opt/xchem-fragalysis-2/maxwin/BulkDock/SCRATCH/511016/C13433-P112

>  <fragmenstein_runtime>  (657) 
24.840375185012817

>  <fragmenstein_outcome>  (657) 
too moved

>  <fragmenstein_mode>  (657) 
expansion

>  <fragmenstein_error>  (657) 


$$$$
C13434-P127
     RDKit          3D

 41 43  0  0  0  0  0  0  0  0999 V2000
   -9.1236  -16.7708   12.8441 O   0  0  0  0  0  0  0  0  0  0  0  0
  -10.1378  -17.2126   12.3752 C   0  0  0  0  0  0  0  0  0  0  0  0
  -11.1987  -15.8944   11.8846 O   0  0  0  0  0  0  0  0  0  0  0  0
  -11.9787  -14.0997   11.8906 C   0  0  0  0  0  0  0  0  0  0  0  0
  -13.2896  -13.2199   10.4883 C   0  0  0  0  0  0  0  0  0  0  0  0
  -13.8981  -11.2955    9.7309 C   0  0  0  0  0  0  0  0  0  0  0  0
  -14.3076   -9.9987    8.4658 N   0  0  0  0  0  0  0  0  0  0  0  0
  -14.5499   -9.8570    6.8107 C   0  0  0  0  0  0  0  0  0  0  0  0
  -14.6675   -8.6068    6.3750 C   0  0  0  0  0  0  0  0  0  0  0  0
  -14.8044   -8.1331    7.6262 C   0  0  0  0  0  0  0  0  0  0  0  0
  -14.1630   -8.6888    8.6894 N   0  0  0  0  0  0  0  0  0  0  0  0
  -10.2186  -19.1446   12.1678 C   0  0  0  0  0  0  0  0  0  0  0  0
   -9.2257  -19.8877   11.6532 C   0  0  0  0  0  0  0  0  0  0  0  0
   -9.0039  -21.2163   12.8772 C   0  0  0  0  0  0  0  0  0  0  0  0
  -10.0167  -21.1969   13.6692 N   0  0  0  0  0  0  0  0  0  0  0  0
  -10.8558  -20.7470   12.7208 N   0  0  0  0  0  0  0  0  0  0  0  0
  -11.3653  -22.3330   12.1228 C   0  0  0  0  0  0  0  0  0  0  0  0
  -10.7434  -23.2448   11.0648 C   0  0  0  0  0  0  0  0  0  0  0  0
  -11.4917  -24.5865   11.0748 C   0  0  0  0  0  0  0  0  0  0  0  0
  -12.9383  -24.1943   11.2148 C   0  0  0  0  0  0  0  0  0  0  0  0
  -12.8677  -23.0981   12.2738 C   0  0  0  0  0  0  0  0  0  0  0  0
  -12.5244  -14.2515   12.8187 H   0  0  0  0  0  0  0  0  0  0  0  0
  -11.0310  -13.5511   11.8602 H   0  0  0  0  0  0  0  0  0  0  0  0
  -13.8895  -14.0725   10.4211 H   0  0  0  0  0  0  0  0  0  0  0  0
  -14.1355  -12.8155   11.0082 H   0  0  0  0  0  0  0  0  0  0  0  0
  -14.8157  -10.9308   10.1708 H   0  0  0  0  0  0  0  0  0  0  0  0
  -12.9540  -10.7801    9.5187 H   0  0  0  0  0  0  0  0  0  0  0  0
  -14.6672  -10.7488    6.1843 H   0  0  0  0  0  0  0  0  0  0  0  0
  -14.9936   -8.2706    5.4035 H   0  0  0  0  0  0  0  0  0  0  0  0
  -15.5362   -7.3454    7.6529 H   0  0  0  0  0  0  0  0  0  0  0  0
   -8.4194  -19.2233   11.3045 H   0  0  0  0  0  0  0  0  0  0  0  0
   -8.0498  -21.6279   13.2133 H   0  0  0  0  0  0  0  0  0  0  0  0
  -10.9113  -22.8671   12.9748 H   0  0  0  0  0  0  0  0  0  0  0  0
  -10.9365  -22.8366   10.0711 H   0  0  0  0  0  0  0  0  0  0  0  0
   -9.7063  -23.4912   11.3149 H   0  0  0  0  0  0  0  0  0  0  0  0
  -11.3034  -25.1635   10.1644 H   0  0  0  0  0  0  0  0  0  0  0  0
  -11.1713  -25.1919   11.9317 H   0  0  0  0  0  0  0  0  0  0  0  0
  -13.5610  -25.0358   11.5352 H   0  0  0  0  0  0  0  0  0  0  0  0
  -13.3438  -23.8307   10.2663 H   0  0  0  0  0  0  0  0  0  0  0  0
  -12.9361  -23.6751   13.1892 H   0  0  0  0  0  0  0  0  0  0  0  0
  -13.7670  -22.4915   12.2851 H   0  0  0  0  0  0  0  0  0  0  0  0
  1  2  2  0
  2  3  1  0
  3  4  1  0
  4  5  1  0
  5  6  1  0
  6  7  1  0
  7  8  1  0
  8  9  2  0
  9 10  1  0
 10 11  2  0
  2 12  1  0
 12 13  2  0
 13 14  1  0
 14 15  2  0
 15 16  1  0
 16 17  1  0
 17 18  1  0
 18 19  1  0
 19 20  1  0
 20 21  1  0
 11  7  1  0
 16 12  1  0
 21 17  1  0
  4 22  1  0
  4 23  1  0
  5 24  1  0
  5 25  1  0
  6 26  1  0
  6 27  1  0
  8 28  1  0
  9 29  1  0
 10 30  1  0
 13 31  1  0
 14 32  1  0
 17 33  1  0
 18 34  1  0
 18 35  1  0
 19 36  1  0
 19 37  1  0
 20 38  1  0
 20 39  1  0
 21 40  1  0
 21 41  1  0
M  END
>  <Energy>  (658) 
951.73577982439053

>  <compound_id>  (658) 
13434

>  <target_id>  (658) 
1

>  <reference_id>  (658) 
127

>  <inspiration_ids>  (658) 
[127, 112]

>  <energy_score>  (658) 
923.3114266319196

>  <distance_score>  (658) 
7.109611955232576

>  <path>  (658) 
/opt/xchem-fragalysis-2/maxwin/BulkDock/SCRATCH/511016/C13434-P127/C13434-P127.minimised.mol

>  <scratch_subdir>  (658) 
/opt/xchem-fragalysis-2/maxwin/BulkDock/SCRATCH/511016/C13434-P127

>  <fragmenstein_runtime>  (658) 
14.334603071212769

>  <fragmenstein_outcome>  (658) 
too moved

>  <fragmenstein_mode>  (658) 
expansion

>  <fragmenstein_error>  (658) 


$$$$
C13434-P112
     RDKit          3D

 41 43  0  0  0  0  0  0  0  0999 V2000
  -10.1483  -12.0930   12.3652 O   0  0  0  0  0  0  0  0  0  0  0  0
  -10.0501  -12.4177   11.1969 C   0  0  0  0  0  0  0  0  0  0  0  0
  -10.7202  -11.6021   10.0302 O   0  0  0  0  0  0  0  0  0  0  0  0
  -11.2658   -9.7933   10.0297 C   0  0  0  0  0  0  0  0  0  0  0  0
  -13.0629   -8.9960    9.8824 C   0  0  0  0  0  0  0  0  0  0  0  0
  -13.3199   -7.1308   10.5884 C   0  0  0  0  0  0  0  0  0  0  0  0
  -14.5582   -5.6640   10.4532 N   0  0  0  0  0  0  0  0  0  0  0  0
  -14.0265   -4.3281    9.0344 C   0  0  0  0  0  0  0  0  0  0  0  0
  -13.6169   -2.5834    9.7920 C   0  0  0  0  0  0  0  0  0  0  0  0
  -14.8748   -2.7574   11.5244 C   0  0  0  0  0  0  0  0  0  0  0  0
  -15.4573   -4.5362   12.0241 N   0  0  0  0  0  0  0  0  0  0  0  0
   -9.1719  -13.5437   10.9417 C   0  0  0  0  0  0  0  0  0  0  0  0
   -7.8132  -13.6352   11.3646 C   0  0  0  0  0  0  0  0  0  0  0  0
   -7.2818  -14.8107   10.7615 C   0  0  0  0  0  0  0  0  0  0  0  0
   -8.3642  -15.5290   10.4707 N   0  0  0  0  0  0  0  0  0  0  0  0
   -9.2169  -14.8690   11.3559 N   0  0  0  0  0  0  0  0  0  0  0  0
   -9.0331  -15.1701   12.8128 C   0  0  0  0  0  0  0  0  0  0  0  0
   -8.1294  -16.3991   12.9653 C   0  0  0  0  0  0  0  0  0  0  0  0
   -9.1946  -17.3556   12.5520 C   0  0  0  0  0  0  0  0  0  0  0  0
  -10.1799  -16.9307   13.6644 C   0  0  0  0  0  0  0  0  0  0  0  0
  -10.3777  -15.4840   13.3553 C   0  0  0  0  0  0  0  0  0  0  0  0
  -10.6522   -9.4206    9.2124 H   0  0  0  0  0  0  0  0  0  0  0  0
  -10.7003   -9.5506   10.9268 H   0  0  0  0  0  0  0  0  0  0  0  0
  -13.2901   -8.9992    8.7853 H   0  0  0  0  0  0  0  0  0  0  0  0
  -13.9358   -9.6464    9.9698 H   0  0  0  0  0  0  0  0  0  0  0  0
  -13.3201   -7.1704    9.5092 H   0  0  0  0  0  0  0  0  0  0  0  0
  -13.8537   -7.5972   11.3527 H   0  0  0  0  0  0  0  0  0  0  0  0
  -14.8735   -4.5718    8.3518 H   0  0  0  0  0  0  0  0  0  0  0  0
  -13.7401   -1.6341    9.2410 H   0  0  0  0  0  0  0  0  0  0  0  0
  -15.5014   -1.9341   11.8804 H   0  0  0  0  0  0  0  0  0  0  0  0
   -7.3275  -12.9333   12.0244 H   0  0  0  0  0  0  0  0  0  0  0  0
   -6.2760  -15.1849   10.6194 H   0  0  0  0  0  0  0  0  0  0  0  0
   -8.6204  -14.3115   13.3581 H   0  0  0  0  0  0  0  0  0  0  0  0
   -7.2254  -16.5016   12.3678 H   0  0  0  0  0  0  0  0  0  0  0  0
   -7.7851  -16.5021   14.0028 H   0  0  0  0  0  0  0  0  0  0  0  0
   -9.5983  -17.1556   11.5531 H   0  0  0  0  0  0  0  0  0  0  0  0
   -8.8658  -18.3788   12.4195 H   0  0  0  0  0  0  0  0  0  0  0  0
   -9.6598  -16.9718   14.6192 H   0  0  0  0  0  0  0  0  0  0  0  0
  -11.0365  -17.5444   13.8878 H   0  0  0  0  0  0  0  0  0  0  0  0
  -10.5419  -14.8182   14.1732 H   0  0  0  0  0  0  0  0  0  0  0  0
  -11.1819  -15.2368   12.6841 H   0  0  0  0  0  0  0  0  0  0  0  0
  1  2  2  0
  2  3  1  0
  3  4  1  0
  4  5  1  0
  5  6  1  0
  6  7  1  0
  7  8  1  0
  8  9  2  0
  9 10  1  0
 10 11  2  0
  2 12  1  0
 12 13  2  0
 13 14  1  0
 14 15  2  0
 15 16  1  0
 16 17  1  0
 17 18  1  0
 18 19  1  0
 19 20  1  0
 20 21  1  0
 11  7  1  0
 16 12  1  0
 21 17  1  0
  4 22  1  0
  4 23  1  0
  5 24  1  0
  5 25  1  0
  6 26  1  0
  6 27  1  0
  8 28  1  0
  9 29  1  0
 10 30  1  0
 13 31  1  0
 14 32  1  0
 17 33  1  0
 18 34  1  0
 18 35  1  0
 19 36  1  0
 19 37  1  0
 20 38  1  0
 20 39  1  0
 21 40  1  0
 21 41  1  0
M  END
>  <Energy>  (659) 
1161.3014781062586

>  <compound_id>  (659) 
13434

>  <target_id>  (659) 
1

>  <reference_id>  (659) 
112

>  <inspiration_ids>  (659) 
[127, 112]

>  <energy_score>  (659) 
1132.8771249137783

>  <distance_score>  (659) 
9.647218018060686

>  <path>  (659) 
/opt/xchem-fragalysis-2/maxwin/BulkDock/SCRATCH/511016/C13434-P112/C13434-P112.minimised.mol

>  <scratch_subdir>  (659) 
/opt/xchem-fragalysis-2/maxwin/BulkDock/SCRATCH/511016/C13434-P112

>  <fragmenstein_runtime>  (659) 
8.193819999694824

>  <fragmenstein_outcome>  (659) 
too moved

>  <fragmenstein_mode>  (659) 
expansion

>  <fragmenstein_error>  (659) 


$$$$
C13435-P127
     RDKit          3D

 50 52  0  0  0  0  0  0  0  0999 V2000
  -14.2462  -13.3628    2.5406 C   0  0  0  0  0  0  0  0  0  0  0  0
  -13.4476  -12.7009    3.6594 C   0  0  0  0  0  0  0  0  0  0  0  0
  -14.2544  -11.3616    4.1963 C   0  0  0  0  0  0  0  0  0  0  0  0
  -14.3626  -10.0004    3.5371 N   0  0  0  0  0  0  0  0  0  0  0  0
  -13.1740   -9.1921    3.1444 C   0  0  0  0  0  0  0  0  0  0  0  0
  -13.3564   -7.6694    3.2906 C   0  0  0  0  0  0  0  0  0  0  0  0
  -14.4241   -6.9374    3.8769 C   0  0  0  0  0  0  0  0  0  0  0  0
  -14.0731   -5.6090    3.7798 C   0  0  0  0  0  0  0  0  0  0  0  0
  -12.8097   -5.5868    3.2511 N   0  0  0  0  0  0  0  0  0  0  0  0
  -12.0076   -4.3854    3.0445 C   0  0  0  0  0  0  0  0  0  0  0  0
  -11.8591   -3.4622    4.2828 C   0  0  0  0  0  0  0  0  0  0  0  0
  -10.3664   -3.1832    4.4469 C   0  0  0  0  0  0  0  0  0  0  0  0
   -9.8096   -3.3788    3.0499 C   0  0  0  0  0  0  0  0  0  0  0  0
  -10.5707   -4.6016    2.5499 C   0  0  0  0  0  0  0  0  0  0  0  0
  -12.4218   -6.8148    2.8093 N   0  0  0  0  0  0  0  0  0  0  0  0
  -12.9239  -13.8192    4.6347 N   0  0  0  0  0  0  0  0  0  0  0  0
  -13.6177  -14.6238    5.6273 C   0  0  0  0  0  0  0  0  0  0  0  0
  -14.7769  -14.6878    5.8908 O   0  0  0  0  0  0  0  0  0  0  0  0
  -12.5135  -15.7187    6.6740 C   0  0  0  0  0  0  0  0  0  0  0  0
  -12.7553  -16.3534    8.4307 N   0  0  0  0  0  0  0  0  0  0  0  0
  -12.0720  -17.0583    9.6884 C   0  0  0  0  0  0  0  0  0  0  0  0
  -12.4050  -18.2421    9.3005 C   0  0  0  0  0  0  0  0  0  0  0  0
  -13.6591  -17.7876    9.6101 C   0  0  0  0  0  0  0  0  0  0  0  0
  -13.8002  -16.5461    9.1380 N   0  0  0  0  0  0  0  0  0  0  0  0
  -13.6649  -14.1622    2.0687 H   0  0  0  0  0  0  0  0  0  0  0  0
  -14.5153  -12.6368    1.7670 H   0  0  0  0  0  0  0  0  0  0  0  0
  -15.1672  -13.8093    2.9299 H   0  0  0  0  0  0  0  0  0  0  0  0
  -12.5155  -12.3126    3.2303 H   0  0  0  0  0  0  0  0  0  0  0  0
  -14.0244  -11.1796    5.2287 H   0  0  0  0  0  0  0  0  0  0  0  0
  -15.2995  -11.6974    4.2672 H   0  0  0  0  0  0  0  0  0  0  0  0
  -14.9746  -10.0672    2.7249 H   0  0  0  0  0  0  0  0  0  0  0  0
  -12.9797   -9.4007    2.0841 H   0  0  0  0  0  0  0  0  0  0  0  0
  -12.2662   -9.4960    3.6633 H   0  0  0  0  0  0  0  0  0  0  0  0
  -15.3256   -7.3368    4.3192 H   0  0  0  0  0  0  0  0  0  0  0  0
  -14.5772   -4.7078    4.0954 H   0  0  0  0  0  0  0  0  0  0  0  0
  -12.5529   -3.8262    2.2708 H   0  0  0  0  0  0  0  0  0  0  0  0
  -12.2839   -3.8704    5.2019 H   0  0  0  0  0  0  0  0  0  0  0  0
  -12.3852   -2.5197    4.0848 H   0  0  0  0  0  0  0  0  0  0  0  0
  -10.1733   -2.1803    4.8383 H   0  0  0  0  0  0  0  0  0  0  0  0
   -9.9278   -3.9093    5.1404 H   0  0  0  0  0  0  0  0  0  0  0  0
  -10.0440   -2.5093    2.4239 H   0  0  0  0  0  0  0  0  0  0  0  0
   -8.7259   -3.5146    3.0409 H   0  0  0  0  0  0  0  0  0  0  0  0
  -10.5239   -4.6905    1.4597 H   0  0  0  0  0  0  0  0  0  0  0  0
  -10.1524   -5.5180    2.9719 H   0  0  0  0  0  0  0  0  0  0  0  0
  -11.9393  -14.0791    4.6265 H   0  0  0  0  0  0  0  0  0  0  0  0
  -11.7376  -16.4345    6.5190 H   0  0  0  0  0  0  0  0  0  0  0  0
  -12.9235  -16.4364    5.9257 H   0  0  0  0  0  0  0  0  0  0  0  0
  -12.2010  -16.5596   10.6261 H   0  0  0  0  0  0  0  0  0  0  0  0
  -11.7664  -19.0783    9.0735 H   0  0  0  0  0  0  0  0  0  0  0  0
  -14.6031  -18.1995    9.9135 H   0  0  0  0  0  0  0  0  0  0  0  0
  1  2  1  0
  2  3  1  0
  3  4  1  0
  4  5  1  0
  5  6  1  0
  6  7  1  0
  7  8  2  0
  8  9  1  0
  9 10  1  0
 10 11  1  0
 11 12  1  0
 12 13  1  0
 13 14  1  0
  9 15  1  0
  2 16  1  0
 16 17  1  0
 17 18  2  0
 17 19  1  0
 19 20  1  0
 20 21  1  0
 21 22  2  0
 22 23  1  0
 23 24  2  0
 15  6  2  0
 24 20  1  0
 14 10  1  0
  1 25  1  0
  1 26  1  0
  1 27  1  0
  2 28  1  0
  3 29  1  0
  3 30  1  0
  4 31  1  0
  5 32  1  0
  5 33  1  0
  7 34  1  0
  8 35  1  0
 10 36  1  0
 11 37  1  0
 11 38  1  0
 12 39  1  0
 12 40  1  0
 13 41  1  0
 13 42  1  0
 14 43  1  0
 14 44  1  0
 16 45  1  0
 19 46  1  0
 19 47  1  0
 21 48  1  0
 22 49  1  0
 23 50  1  0
M  END
>  <Energy>  (660) 
382.28301158802998

>  <compound_id>  (660) 
13435

>  <target_id>  (660) 
1

>  <reference_id>  (660) 
127

>  <inspiration_ids>  (660) 
[127, 112]

>  <energy_score>  (660) 
286.60063197707154

>  <distance_score>  (660) 
10.20771834308962

>  <path>  (660) 
/opt/xchem-fragalysis-2/maxwin/BulkDock/SCRATCH/511016/C13435-P127/C13435-P127.minimised.mol

>  <scratch_subdir>  (660) 
/opt/xchem-fragalysis-2/maxwin/BulkDock/SCRATCH/511016/C13435-P127

>  <fragmenstein_runtime>  (660) 
22.404360055923462

>  <fragmenstein_outcome>  (660) 
too moved

>  <fragmenstein_mode>  (660) 
expansion

>  <fragmenstein_error>  (660) 


$$$$
C13435-P112
     RDKit          3D

 50 52  0  0  0  0  0  0  0  0999 V2000
  -16.4490   -5.6113    7.4969 C   0  0  0  0  0  0  0  0  0  0  0  0
  -15.0830   -5.5137    8.3781 C   0  0  0  0  0  0  0  0  0  0  0  0
  -14.0213   -3.7301    8.0893 C   0  0  0  0  0  0  0  0  0  0  0  0
  -14.3089   -2.2769    7.5144 N   0  0  0  0  0  0  0  0  0  0  0  0
  -13.8075   -1.0997    8.2874 C   0  0  0  0  0  0  0  0  0  0  0  0
  -12.3208   -0.8750    8.2358 C   0  0  0  0  0  0  0  0  0  0  0  0
  -11.5501   -0.1883    9.2079 C   0  0  0  0  0  0  0  0  0  0  0  0
  -10.2570   -0.2416    8.7499 C   0  0  0  0  0  0  0  0  0  0  0  0
  -10.2954   -0.9678    7.5936 N   0  0  0  0  0  0  0  0  0  0  0  0
   -9.1840   -1.4046    6.7725 C   0  0  0  0  0  0  0  0  0  0  0  0
   -7.8036   -0.8310    7.1170 C   0  0  0  0  0  0  0  0  0  0  0  0
   -6.8324   -1.7310    6.3621 C   0  0  0  0  0  0  0  0  0  0  0  0
   -7.5222   -3.0909    6.2583 C   0  0  0  0  0  0  0  0  0  0  0  0
   -8.9198   -2.9101    6.8486 C   0  0  0  0  0  0  0  0  0  0  0  0
  -11.5595   -1.2523    7.1962 N   0  0  0  0  0  0  0  0  0  0  0  0
  -14.2527   -6.9788    9.1967 N   0  0  0  0  0  0  0  0  0  0  0  0
  -13.8306   -8.4456    8.5908 C   0  0  0  0  0  0  0  0  0  0  0  0
  -14.0513   -8.9189    7.4925 O   0  0  0  0  0  0  0  0  0  0  0  0
  -12.7107   -9.5929    9.6256 C   0  0  0  0  0  0  0  0  0  0  0  0
  -10.9315  -10.1756   10.1025 N   0  0  0  0  0  0  0  0  0  0  0  0
  -10.6506  -12.0107   10.4836 C   0  0  0  0  0  0  0  0  0  0  0  0
  -10.0641  -12.2091   11.7464 C   0  0  0  0  0  0  0  0  0  0  0  0
   -9.9038  -10.8847   12.3192 C   0  0  0  0  0  0  0  0  0  0  0  0
  -10.2293   -9.7968   11.5295 N   0  0  0  0  0  0  0  0  0  0  0  0
  -16.9849   -4.6542    7.4803 H   0  0  0  0  0  0  0  0  0  0  0  0
  -16.2691   -5.8489    6.4363 H   0  0  0  0  0  0  0  0  0  0  0  0
  -17.1044   -6.3936    7.8945 H   0  0  0  0  0  0  0  0  0  0  0  0
  -14.8938   -6.2611    7.5880 H   0  0  0  0  0  0  0  0  0  0  0  0
  -13.4934   -3.4041    8.9374 H   0  0  0  0  0  0  0  0  0  0  0  0
  -13.0318   -3.7989    7.5997 H   0  0  0  0  0  0  0  0  0  0  0  0
  -13.6840   -2.2391    6.6842 H   0  0  0  0  0  0  0  0  0  0  0  0
  -14.2717   -0.2199    7.8231 H   0  0  0  0  0  0  0  0  0  0  0  0
  -14.1521   -1.0879    9.3249 H   0  0  0  0  0  0  0  0  0  0  0  0
  -11.8943    0.2630   10.1271 H   0  0  0  0  0  0  0  0  0  0  0  0
   -9.3392    0.1302    9.1791 H   0  0  0  0  0  0  0  0  0  0  0  0
   -9.4344   -1.1255    5.7396 H   0  0  0  0  0  0  0  0  0  0  0  0
   -7.5912   -0.9054    8.1900 H   0  0  0  0  0  0  0  0  0  0  0  0
   -7.7031    0.2197    6.8274 H   0  0  0  0  0  0  0  0  0  0  0  0
   -6.6497   -1.3315    5.3578 H   0  0  0  0  0  0  0  0  0  0  0  0
   -5.8654   -1.7994    6.8706 H   0  0  0  0  0  0  0  0  0  0  0  0
   -7.5847   -3.3983    5.2082 H   0  0  0  0  0  0  0  0  0  0  0  0
   -6.9683   -3.8695    6.7925 H   0  0  0  0  0  0  0  0  0  0  0  0
   -9.6703   -3.4948    6.3066 H   0  0  0  0  0  0  0  0  0  0  0  0
   -8.9265   -3.2539    7.8903 H   0  0  0  0  0  0  0  0  0  0  0  0
  -13.9869   -6.9289   10.1844 H   0  0  0  0  0  0  0  0  0  0  0  0
  -13.1601  -10.5817    9.5202 H   0  0  0  0  0  0  0  0  0  0  0  0
  -12.9177   -9.0192   10.4966 H   0  0  0  0  0  0  0  0  0  0  0  0
  -10.5542  -12.5682    9.5727 H   0  0  0  0  0  0  0  0  0  0  0  0
   -9.7144  -13.1398   12.1656 H   0  0  0  0  0  0  0  0  0  0  0  0
   -9.4027  -10.6533   13.2538 H   0  0  0  0  0  0  0  0  0  0  0  0
  1  2  1  0
  2  3  1  0
  3  4  1  0
  4  5  1  0
  5  6  1  0
  6  7  1  0
  7  8  2  0
  8  9  1  0
  9 10  1  0
 10 11  1  0
 11 12  1  0
 12 13  1  0
 13 14  1  0
  9 15  1  0
  2 16  1  0
 16 17  1  0
 17 18  2  0
 17 19  1  0
 19 20  1  0
 20 21  1  0
 21 22  2  0
 22 23  1  0
 23 24  2  0
 15  6  2  0
 24 20  1  0
 14 10  1  0
  1 25  1  0
  1 26  1  0
  1 27  1  0
  2 28  1  0
  3 29  1  0
  3 30  1  0
  4 31  1  0
  5 32  1  0
  5 33  1  0
  7 34  1  0
  8 35  1  0
 10 36  1  0
 11 37  1  0
 11 38  1  0
 12 39  1  0
 12 40  1  0
 13 41  1  0
 13 42  1  0
 14 43  1  0
 14 44  1  0
 16 45  1  0
 19 46  1  0
 19 47  1  0
 21 48  1  0
 22 49  1  0
 23 50  1  0
M  END
>  <Energy>  (661) 
536.56021778116053

>  <compound_id>  (661) 
13435

>  <target_id>  (661) 
1

>  <reference_id>  (661) 
112

>  <inspiration_ids>  (661) 
[127, 112]

>  <energy_score>  (661) 
440.87783817019374

>  <distance_score>  (661) 
8.03278620264362

>  <path>  (661) 
/opt/xchem-fragalysis-2/maxwin/BulkDock/SCRATCH/511016/C13435-P112/C13435-P112.minimised.mol

>  <scratch_subdir>  (661) 
/opt/xchem-fragalysis-2/maxwin/BulkDock/SCRATCH/511016/C13435-P112

>  <fragmenstein_runtime>  (661) 
25.878260850906372

>  <fragmenstein_outcome>  (661) 
too moved

>  <fragmenstein_mode>  (661) 
expansion

>  <fragmenstein_error>  (661) 


$$$$
C13437-P127
     RDKit          3D

 42 44  0  0  0  0  0  0  0  0999 V2000
   -9.7355  -12.3946   12.1583 C   0  0  0  0  0  0  0  0  0  0  0  0
  -11.0182  -12.8223   11.3898 C   0  0  0  0  0  0  0  0  0  0  0  0
  -11.2088  -11.7915    9.8316 C   0  0  0  0  0  0  0  0  0  0  0  0
  -12.6757  -10.6154    9.4114 N   0  0  0  0  0  0  0  0  0  0  0  0
  -14.0649  -10.4544    9.1469 C   0  0  0  0  0  0  0  0  0  0  0  0
  -14.1940   -9.2562    8.4673 C   0  0  0  0  0  0  0  0  0  0  0  0
  -13.5016   -8.6553    9.4280 C   0  0  0  0  0  0  0  0  0  0  0  0
  -12.3168   -9.3025    9.5412 N   0  0  0  0  0  0  0  0  0  0  0  0
  -11.7415  -14.3068   12.3899 C   0  0  0  0  0  0  0  0  0  0  0  0
  -12.7794  -14.2579   12.9497 O   0  0  0  0  0  0  0  0  0  0  0  0
  -10.8428  -15.3682   12.2291 N   0  0  0  0  0  0  0  0  0  0  0  0
  -10.9367  -16.8885   12.6383 C   0  0  0  0  0  0  0  0  0  0  0  0
   -9.7243  -17.0600   12.9633 C   0  0  0  0  0  0  0  0  0  0  0  0
  -10.6775  -18.0643   14.0107 C   0  0  0  0  0  0  0  0  0  0  0  0
  -11.0527  -19.0223   13.3008 N   0  0  0  0  0  0  0  0  0  0  0  0
  -10.1144  -18.6133   12.3539 N   0  0  0  0  0  0  0  0  0  0  0  0
  -10.0581  -20.4705   12.1866 C   0  0  0  0  0  0  0  0  0  0  0  0
  -10.6217  -22.0074   11.5507 C   0  0  0  0  0  0  0  0  0  0  0  0
   -9.6773  -23.1250   12.1124 C   0  0  0  0  0  0  0  0  0  0  0  0
   -9.0182  -22.4707   13.3170 C   0  0  0  0  0  0  0  0  0  0  0  0
   -9.8617  -21.3018   13.4968 C   0  0  0  0  0  0  0  0  0  0  0  0
   -8.8365  -12.5204   11.5622 H   0  0  0  0  0  0  0  0  0  0  0  0
   -9.7621  -11.3494   12.4636 H   0  0  0  0  0  0  0  0  0  0  0  0
   -9.5944  -12.9679   13.0780 H   0  0  0  0  0  0  0  0  0  0  0  0
  -10.7193  -13.5106   10.6759 H   0  0  0  0  0  0  0  0  0  0  0  0
  -10.6382  -10.9027    9.8007 H   0  0  0  0  0  0  0  0  0  0  0  0
  -10.8264  -12.2270    8.9152 H   0  0  0  0  0  0  0  0  0  0  0  0
  -14.8360  -11.0530    9.5533 H   0  0  0  0  0  0  0  0  0  0  0  0
  -15.0009   -8.7915    7.9407 H   0  0  0  0  0  0  0  0  0  0  0  0
  -13.5594   -7.6972    9.9108 H   0  0  0  0  0  0  0  0  0  0  0  0
  -10.1381  -15.0871   11.6555 H   0  0  0  0  0  0  0  0  0  0  0  0
   -8.8677  -16.4903   13.3005 H   0  0  0  0  0  0  0  0  0  0  0  0
  -10.5230  -18.3675   15.0387 H   0  0  0  0  0  0  0  0  0  0  0  0
   -9.2612  -20.2119   11.5416 H   0  0  0  0  0  0  0  0  0  0  0  0
  -11.5961  -22.2741   11.9775 H   0  0  0  0  0  0  0  0  0  0  0  0
  -10.8096  -22.1172   10.4856 H   0  0  0  0  0  0  0  0  0  0  0  0
  -10.2837  -23.9866   12.4201 H   0  0  0  0  0  0  0  0  0  0  0  0
   -8.9204  -23.5236   11.4357 H   0  0  0  0  0  0  0  0  0  0  0  0
   -9.0796  -23.1186   14.1934 H   0  0  0  0  0  0  0  0  0  0  0  0
   -8.0064  -22.1042   13.1858 H   0  0  0  0  0  0  0  0  0  0  0  0
  -10.7126  -21.9120   13.5820 H   0  0  0  0  0  0  0  0  0  0  0  0
   -9.9653  -20.8483   14.4562 H   0  0  0  0  0  0  0  0  0  0  0  0
  1  2  1  0
  2  3  1  0
  3  4  1  0
  4  5  1  0
  5  6  2  0
  6  7  1  0
  7  8  2  0
  2  9  1  0
  9 10  2  0
  9 11  1  0
 11 12  1  0
 12 13  2  0
 13 14  1  0
 14 15  2  0
 15 16  1  0
 16 17  1  0
 17 18  1  0
 18 19  1  0
 19 20  1  0
 20 21  1  0
  8  4  1  0
 16 12  1  0
 21 17  1  0
  1 22  1  0
  1 23  1  0
  1 24  1  0
  2 25  1  0
  3 26  1  0
  3 27  1  0
  5 28  1  0
  6 29  1  0
  7 30  1  0
 11 31  1  0
 13 32  1  0
 14 33  1  0
 17 34  1  0
 18 35  1  0
 18 36  1  0
 19 37  1  0
 19 38  1  0
 20 39  1  0
 20 40  1  0
 21 41  1  0
 21 42  1  0
M  END
>  <Energy>  (662) 
826.84966365284231

>  <compound_id>  (662) 
13437

>  <target_id>  (662) 
1

>  <reference_id>  (662) 
127

>  <inspiration_ids>  (662) 
[127, 112]

>  <energy_score>  (662) 
751.9414892101593

>  <distance_score>  (662) 
8.449125822500982

>  <path>  (662) 
/opt/xchem-fragalysis-2/maxwin/BulkDock/SCRATCH/511016/C13437-P127/C13437-P127.minimised.mol

>  <scratch_subdir>  (662) 
/opt/xchem-fragalysis-2/maxwin/BulkDock/SCRATCH/511016/C13437-P127

>  <fragmenstein_runtime>  (662) 
11.574138164520264

>  <fragmenstein_outcome>  (662) 
too moved

>  <fragmenstein_mode>  (662) 
expansion

>  <fragmenstein_error>  (662) 


$$$$
C13437-P112
     RDKit          3D

 42 44  0  0  0  0  0  0  0  0999 V2000
  -11.1777  -15.6513   12.4977 C   0  0  0  0  0  0  0  0  0  0  0  0
  -12.6563  -16.2876   11.2668 C   0  0  0  0  0  0  0  0  0  0  0  0
  -13.2834  -14.2551   11.2063 C   0  0  0  0  0  0  0  0  0  0  0  0
  -13.5014  -12.2867   10.7606 N   0  0  0  0  0  0  0  0  0  0  0  0
  -14.8068  -11.2902   10.3714 C   0  0  0  0  0  0  0  0  0  0  0  0
  -14.5506  -10.1786    9.5735 C   0  0  0  0  0  0  0  0  0  0  0  0
  -13.2989  -10.1297    9.2900 C   0  0  0  0  0  0  0  0  0  0  0  0
  -12.6758  -11.1714    9.7816 N   0  0  0  0  0  0  0  0  0  0  0  0
  -12.5810  -17.7164   10.0737 C   0  0  0  0  0  0  0  0  0  0  0  0
  -13.6680  -17.9635    9.6998 O   0  0  0  0  0  0  0  0  0  0  0  0
  -11.1955  -18.5957    9.7039 N   0  0  0  0  0  0  0  0  0  0  0  0
  -10.9703  -19.8159    8.7490 C   0  0  0  0  0  0  0  0  0  0  0  0
   -9.8612  -19.5667    7.9318 C   0  0  0  0  0  0  0  0  0  0  0  0
  -10.0960  -20.2309    6.7235 C   0  0  0  0  0  0  0  0  0  0  0  0
  -10.9858  -21.1946    6.8395 N   0  0  0  0  0  0  0  0  0  0  0  0
  -11.4213  -21.1856    8.1503 N   0  0  0  0  0  0  0  0  0  0  0  0
  -12.4745  -22.2782    8.3298 C   0  0  0  0  0  0  0  0  0  0  0  0
  -13.2142  -22.7107    7.0120 C   0  0  0  0  0  0  0  0  0  0  0  0
  -14.2249  -23.7703    7.4637 C   0  0  0  0  0  0  0  0  0  0  0  0
  -13.6495  -24.3630    8.7431 C   0  0  0  0  0  0  0  0  0  0  0  0
  -12.2688  -23.7168    8.8834 C   0  0  0  0  0  0  0  0  0  0  0  0
  -10.5246  -14.8545   12.1220 H   0  0  0  0  0  0  0  0  0  0  0  0
  -10.5929  -16.4660   12.9505 H   0  0  0  0  0  0  0  0  0  0  0  0
  -11.6628  -15.1181   13.3399 H   0  0  0  0  0  0  0  0  0  0  0  0
  -13.4119  -16.9798   11.2835 H   0  0  0  0  0  0  0  0  0  0  0  0
  -13.0124  -14.1680   12.2474 H   0  0  0  0  0  0  0  0  0  0  0  0
  -14.2306  -14.7079   10.8947 H   0  0  0  0  0  0  0  0  0  0  0  0
  -15.7304  -11.7523   10.7386 H   0  0  0  0  0  0  0  0  0  0  0  0
  -15.1333   -9.4083    9.1116 H   0  0  0  0  0  0  0  0  0  0  0  0
  -12.8533   -9.4540    8.6063 H   0  0  0  0  0  0  0  0  0  0  0  0
  -10.4219  -18.2212   10.2155 H   0  0  0  0  0  0  0  0  0  0  0  0
   -9.1575  -18.7606    8.0589 H   0  0  0  0  0  0  0  0  0  0  0  0
   -9.6052  -20.0844    5.7689 H   0  0  0  0  0  0  0  0  0  0  0  0
  -13.2819  -21.8713    8.9379 H   0  0  0  0  0  0  0  0  0  0  0  0
  -13.7172  -21.8957    6.4844 H   0  0  0  0  0  0  0  0  0  0  0  0
  -12.5097  -23.1671    6.3039 H   0  0  0  0  0  0  0  0  0  0  0  0
  -15.2003  -23.3137    7.6659 H   0  0  0  0  0  0  0  0  0  0  0  0
  -14.3679  -24.5304    6.6890 H   0  0  0  0  0  0  0  0  0  0  0  0
  -14.2835  -24.1003    9.5980 H   0  0  0  0  0  0  0  0  0  0  0  0
  -13.5832  -25.4544    8.6988 H   0  0  0  0  0  0  0  0  0  0  0  0
  -11.5846  -24.2968    8.2526 H   0  0  0  0  0  0  0  0  0  0  0  0
  -11.9508  -23.7830    9.9256 H   0  0  0  0  0  0  0  0  0  0  0  0
  1  2  1  0
  2  3  1  0
  3  4  1  0
  4  5  1  0
  5  6  2  0
  6  7  1  0
  7  8  2  0
  2  9  1  0
  9 10  2  0
  9 11  1  0
 11 12  1  0
 12 13  2  0
 13 14  1  0
 14 15  2  0
 15 16  1  0
 16 17  1  0
 17 18  1  0
 18 19  1  0
 19 20  1  0
 20 21  1  0
  8  4  1  0
 16 12  1  0
 21 17  1  0
  1 22  1  0
  1 23  1  0
  1 24  1  0
  2 25  1  0
  3 26  1  0
  3 27  1  0
  5 28  1  0
  6 29  1  0
  7 30  1  0
 11 31  1  0
 13 32  1  0
 14 33  1  0
 17 34  1  0
 18 35  1  0
 18 36  1  0
 19 37  1  0
 19 38  1  0
 20 39  1  0
 20 40  1  0
 21 41  1  0
 21 42  1  0
M  END
>  <Energy>  (663) 
733.55201376951561

>  <compound_id>  (663) 
13437

>  <target_id>  (663) 
1

>  <reference_id>  (663) 
112

>  <inspiration_ids>  (663) 
[127, 112]

>  <energy_score>  (663) 
658.643839326809

>  <distance_score>  (663) 
8.502852505024812

>  <path>  (663) 
/opt/xchem-fragalysis-2/maxwin/BulkDock/SCRATCH/511016/C13437-P112/C13437-P112.minimised.mol

>  <scratch_subdir>  (663) 
/opt/xchem-fragalysis-2/maxwin/BulkDock/SCRATCH/511016/C13437-P112

>  <fragmenstein_runtime>  (663) 
10.215474605560303

>  <fragmenstein_outcome>  (663) 
too moved

>  <fragmenstein_mode>  (663) 
expansion

>  <fragmenstein_error>  (663) 


$$$$
C13438-P127
     RDKit          3D

 51 53  0  0  0  0  0  0  0  0999 V2000
  -12.5993   -8.4865    6.9958 O   0  0  0  0  0  0  0  0  0  0  0  0
  -13.3948   -8.7502    7.8456 C   0  0  0  0  0  0  0  0  0  0  0  0
  -12.7445  -10.0814    9.1968 C   0  0  0  0  0  0  0  0  0  0  0  0
  -11.2380  -11.3320    9.6939 N   0  0  0  0  0  0  0  0  0  0  0  0
  -10.8220  -12.6835    9.9138 C   0  0  0  0  0  0  0  0  0  0  0  0
  -10.8640  -13.1199   11.2408 C   0  0  0  0  0  0  0  0  0  0  0  0
  -10.0422  -12.2223   11.7994 C   0  0  0  0  0  0  0  0  0  0  0  0
  -10.3371  -11.0685   11.2367 N   0  0  0  0  0  0  0  0  0  0  0  0
  -14.7723   -8.1210    8.0949 N   0  0  0  0  0  0  0  0  0  0  0  0
  -15.6661   -6.6099    7.2616 C   0  0  0  0  0  0  0  0  0  0  0  0
  -15.0417   -4.4984    7.3958 C   0  0  0  0  0  0  0  0  0  0  0  0
  -13.7226   -3.9678    6.8941 O   0  0  0  0  0  0  0  0  0  0  0  0
  -15.6573   -2.7962    6.8639 C   0  0  0  0  0  0  0  0  0  0  0  0
  -14.9363   -1.5090    7.2205 N   0  0  0  0  0  0  0  0  0  0  0  0
  -13.9004   -1.0495    6.2794 C   0  0  0  0  0  0  0  0  0  0  0  0
  -12.6108   -0.7021    6.9747 C   0  0  0  0  0  0  0  0  0  0  0  0
  -12.3757    0.2252    8.0196 C   0  0  0  0  0  0  0  0  0  0  0  0
  -11.0346    0.1129    8.3061 C   0  0  0  0  0  0  0  0  0  0  0  0
  -10.5396   -0.8382    7.4533 N   0  0  0  0  0  0  0  0  0  0  0  0
   -9.2065   -1.4102    7.4842 C   0  0  0  0  0  0  0  0  0  0  0  0
   -8.0827   -0.3728    7.3956 C   0  0  0  0  0  0  0  0  0  0  0  0
   -6.8378   -1.1625    6.9932 C   0  0  0  0  0  0  0  0  0  0  0  0
   -7.3345   -2.4947    6.4346 C   0  0  0  0  0  0  0  0  0  0  0  0
   -8.8490   -2.3615    6.3372 C   0  0  0  0  0  0  0  0  0  0  0  0
  -11.4717   -1.2975    6.5959 N   0  0  0  0  0  0  0  0  0  0  0  0
  -13.1339  -10.9089    8.7983 H   0  0  0  0  0  0  0  0  0  0  0  0
  -13.7577  -10.4566    9.5413 H   0  0  0  0  0  0  0  0  0  0  0  0
  -10.1487  -12.9885    9.1213 H   0  0  0  0  0  0  0  0  0  0  0  0
  -10.8959  -14.1107   11.6748 H   0  0  0  0  0  0  0  0  0  0  0  0
   -9.4284  -12.2509   12.6898 H   0  0  0  0  0  0  0  0  0  0  0  0
  -15.1601   -8.5060    8.9366 H   0  0  0  0  0  0  0  0  0  0  0  0
  -15.8142   -7.0175    6.2341 H   0  0  0  0  0  0  0  0  0  0  0  0
  -16.6565   -6.7277    7.7584 H   0  0  0  0  0  0  0  0  0  0  0  0
  -14.7715   -4.6455    8.3997 H   0  0  0  0  0  0  0  0  0  0  0  0
  -13.4111   -3.2740    7.5080 H   0  0  0  0  0  0  0  0  0  0  0  0
  -16.6830   -2.6833    7.2517 H   0  0  0  0  0  0  0  0  0  0  0  0
  -15.6688   -2.7501    5.7632 H   0  0  0  0  0  0  0  0  0  0  0  0
  -14.5276   -1.6791    8.1436 H   0  0  0  0  0  0  0  0  0  0  0  0
  -14.2750   -0.1518    5.7743 H   0  0  0  0  0  0  0  0  0  0  0  0
  -13.7003   -1.7848    5.4956 H   0  0  0  0  0  0  0  0  0  0  0  0
  -13.0971    0.8601    8.5126 H   0  0  0  0  0  0  0  0  0  0  0  0
  -10.4119    0.5874    9.0507 H   0  0  0  0  0  0  0  0  0  0  0  0
   -9.1327   -1.9531    8.4345 H   0  0  0  0  0  0  0  0  0  0  0  0
   -7.9333    0.1613    8.3399 H   0  0  0  0  0  0  0  0  0  0  0  0
   -8.3079    0.3783    6.6277 H   0  0  0  0  0  0  0  0  0  0  0  0
   -6.2531   -0.6100    6.2502 H   0  0  0  0  0  0  0  0  0  0  0  0
   -6.1875   -1.3327    7.8581 H   0  0  0  0  0  0  0  0  0  0  0  0
   -6.8833   -2.7291    5.4654 H   0  0  0  0  0  0  0  0  0  0  0  0
   -7.0745   -3.3075    7.1220 H   0  0  0  0  0  0  0  0  0  0  0  0
   -9.1198   -1.9293    5.3656 H   0  0  0  0  0  0  0  0  0  0  0  0
   -9.3512   -3.3305    6.4254 H   0  0  0  0  0  0  0  0  0  0  0  0
  1  2  2  0
  2  3  1  0
  3  4  1  0
  4  5  1  0
  5  6  2  0
  6  7  1  0
  7  8  2  0
  2  9  1  0
  9 10  1  0
 10 11  1  0
 11 12  1  0
 11 13  1  0
 13 14  1  0
 14 15  1  0
 15 16  1  0
 16 17  1  0
 17 18  2  0
 18 19  1  0
 19 20  1  0
 20 21  1  0
 21 22  1  0
 22 23  1  0
 23 24  1  0
 19 25  1  0
  8  4  1  0
 25 16  2  0
 24 20  1  0
  3 26  1  0
  3 27  1  0
  5 28  1  0
  6 29  1  0
  7 30  1  0
  9 31  1  0
 10 32  1  0
 10 33  1  0
 11 34  1  0
 12 35  1  0
 13 36  1  0
 13 37  1  0
 14 38  1  0
 15 39  1  0
 15 40  1  0
 17 41  1  0
 18 42  1  0
 20 43  1  0
 21 44  1  0
 21 45  1  0
 22 46  1  0
 22 47  1  0
 23 48  1  0
 23 49  1  0
 24 50  1  0
 24 51  1  0
M  END
>  <Energy>  (664) 
716.3366561025573

>  <compound_id>  (664) 
13438

>  <target_id>  (664) 
1

>  <reference_id>  (664) 
127

>  <inspiration_ids>  (664) 
[127, 112]

>  <energy_score>  (664) 
587.7201738212354

>  <distance_score>  (664) 
7.5830117811585795

>  <path>  (664) 
/opt/xchem-fragalysis-2/maxwin/BulkDock/SCRATCH/511016/C13438-P127/C13438-P127.minimised.mol

>  <scratch_subdir>  (664) 
/opt/xchem-fragalysis-2/maxwin/BulkDock/SCRATCH/511016/C13438-P127

>  <fragmenstein_runtime>  (664) 
20.260295629501343

>  <fragmenstein_outcome>  (664) 
too moved

>  <fragmenstein_mode>  (664) 
expansion

>  <fragmenstein_error>  (664) 


$$$$
C13438-P112
     RDKit          3D

 51 53  0  0  0  0  0  0  0  0999 V2000
  -18.7662   -7.3013    6.6935 O   0  0  0  0  0  0  0  0  0  0  0  0
  -18.8223   -6.8860    7.8199 C   0  0  0  0  0  0  0  0  0  0  0  0
  -18.7290   -7.8996    9.0228 C   0  0  0  0  0  0  0  0  0  0  0  0
  -17.9564   -9.1803    8.9942 N   0  0  0  0  0  0  0  0  0  0  0  0
  -17.5861   -9.9981    7.9578 C   0  0  0  0  0  0  0  0  0  0  0  0
  -17.0452  -11.1452    8.5063 C   0  0  0  0  0  0  0  0  0  0  0  0
  -17.1406  -10.9553    9.8923 C   0  0  0  0  0  0  0  0  0  0  0  0
  -17.6727   -9.7648   10.2013 N   0  0  0  0  0  0  0  0  0  0  0  0
  -19.0747   -5.5031    8.3348 N   0  0  0  0  0  0  0  0  0  0  0  0
  -19.4349   -4.2332    7.6120 C   0  0  0  0  0  0  0  0  0  0  0  0
  -18.5182   -3.0227    7.0689 C   0  0  0  0  0  0  0  0  0  0  0  0
  -19.4584   -2.0522    6.5365 O   0  0  0  0  0  0  0  0  0  0  0  0
  -17.5517   -2.2176    7.9918 C   0  0  0  0  0  0  0  0  0  0  0  0
  -16.7540   -1.1690    7.2961 N   0  0  0  0  0  0  0  0  0  0  0  0
  -15.7285   -0.4991    8.1533 C   0  0  0  0  0  0  0  0  0  0  0  0
  -14.3563   -0.4518    7.5102 C   0  0  0  0  0  0  0  0  0  0  0  0
  -14.0411   -0.1823    6.1554 C   0  0  0  0  0  0  0  0  0  0  0  0
  -12.6714   -0.2438    6.0708 C   0  0  0  0  0  0  0  0  0  0  0  0
  -12.2283   -0.5799    7.3186 N   0  0  0  0  0  0  0  0  0  0  0  0
  -10.8608   -0.8786    7.7065 C   0  0  0  0  0  0  0  0  0  0  0  0
   -9.8917    0.3045    7.6003 C   0  0  0  0  0  0  0  0  0  0  0  0
   -8.4950   -0.3216    7.5464 C   0  0  0  0  0  0  0  0  0  0  0  0
   -8.6940   -1.7995    7.2139 C   0  0  0  0  0  0  0  0  0  0  0  0
  -10.1654   -1.9412    6.8471 C   0  0  0  0  0  0  0  0  0  0  0  0
  -13.2281   -0.5848    8.2375 N   0  0  0  0  0  0  0  0  0  0  0  0
  -18.3739   -7.3727    9.9094 H   0  0  0  0  0  0  0  0  0  0  0  0
  -19.7589   -8.2208    9.2271 H   0  0  0  0  0  0  0  0  0  0  0  0
  -17.7529   -9.7078    6.9295 H   0  0  0  0  0  0  0  0  0  0  0  0
  -16.6615  -12.0065    7.9797 H   0  0  0  0  0  0  0  0  0  0  0  0
  -16.8516  -11.6323   10.6878 H   0  0  0  0  0  0  0  0  0  0  0  0
  -19.1353   -5.5299    9.3402 H   0  0  0  0  0  0  0  0  0  0  0  0
  -20.1792   -3.7689    8.2727 H   0  0  0  0  0  0  0  0  0  0  0  0
  -20.0097   -4.5767    6.7412 H   0  0  0  0  0  0  0  0  0  0  0  0
  -17.9688   -3.3554    6.1912 H   0  0  0  0  0  0  0  0  0  0  0  0
  -18.9313   -1.4907    5.9373 H   0  0  0  0  0  0  0  0  0  0  0  0
  -16.8736   -2.9506    8.3966 H   0  0  0  0  0  0  0  0  0  0  0  0
  -18.1320   -1.7344    8.7834 H   0  0  0  0  0  0  0  0  0  0  0  0
  -17.3740   -0.4414    6.9501 H   0  0  0  0  0  0  0  0  0  0  0  0
  -16.0544    0.5379    8.3079 H   0  0  0  0  0  0  0  0  0  0  0  0
  -15.6815   -0.9347    9.1532 H   0  0  0  0  0  0  0  0  0  0  0  0
  -14.7326   -0.0112    5.3445 H   0  0  0  0  0  0  0  0  0  0  0  0
  -12.0005   -0.1496    5.2304 H   0  0  0  0  0  0  0  0  0  0  0  0
  -10.8866   -1.2043    8.7525 H   0  0  0  0  0  0  0  0  0  0  0  0
   -9.9960    0.9951    8.4438 H   0  0  0  0  0  0  0  0  0  0  0  0
  -10.0676    0.8832    6.6853 H   0  0  0  0  0  0  0  0  0  0  0  0
   -7.8800    0.1773    6.7897 H   0  0  0  0  0  0  0  0  0  0  0  0
   -7.9800   -0.2138    8.5073 H   0  0  0  0  0  0  0  0  0  0  0  0
   -8.0366   -2.1326    6.4050 H   0  0  0  0  0  0  0  0  0  0  0  0
   -8.4696   -2.4121    8.0935 H   0  0  0  0  0  0  0  0  0  0  0  0
  -10.2927   -1.7395    5.7768 H   0  0  0  0  0  0  0  0  0  0  0  0
  -10.5430   -2.9497    7.0355 H   0  0  0  0  0  0  0  0  0  0  0  0
  1  2  2  0
  2  3  1  0
  3  4  1  0
  4  5  1  0
  5  6  2  0
  6  7  1  0
  7  8  2  0
  2  9  1  0
  9 10  1  0
 10 11  1  0
 11 12  1  0
 11 13  1  0
 13 14  1  0
 14 15  1  0
 15 16  1  0
 16 17  1  0
 17 18  2  0
 18 19  1  0
 19 20  1  0
 20 21  1  0
 21 22  1  0
 22 23  1  0
 23 24  1  0
 19 25  1  0
  8  4  1  0
 25 16  2  0
 24 20  1  0
  3 26  1  0
  3 27  1  0
  5 28  1  0
  6 29  1  0
  7 30  1  0
  9 31  1  0
 10 32  1  0
 10 33  1  0
 11 34  1  0
 12 35  1  0
 13 36  1  0
 13 37  1  0
 14 38  1  0
 15 39  1  0
 15 40  1  0
 17 41  1  0
 18 42  1  0
 20 43  1  0
 21 44  1  0
 21 45  1  0
 22 46  1  0
 22 47  1  0
 23 48  1  0
 23 49  1  0
 24 50  1  0
 24 51  1  0
M  END
>  <Energy>  (665) 
116.07208657727973

>  <compound_id>  (665) 
13438

>  <target_id>  (665) 
1

>  <reference_id>  (665) 
112

>  <inspiration_ids>  (665) 
[127, 112]

>  <energy_score>  (665) 
-12.544395704040994

>  <distance_score>  (665) 
9.170040099215687

>  <path>  (665) 
/opt/xchem-fragalysis-2/maxwin/BulkDock/SCRATCH/511016/C13438-P112/C13438-P112.minimised.mol

>  <scratch_subdir>  (665) 
/opt/xchem-fragalysis-2/maxwin/BulkDock/SCRATCH/511016/C13438-P112

>  <fragmenstein_runtime>  (665) 
25.455454349517822

>  <fragmenstein_outcome>  (665) 
too moved

>  <fragmenstein_mode>  (665) 
expansion

>  <fragmenstein_error>  (665) 


$$$$
C13463-P127
     RDKit          3D

 50 51  0  0  0  0  0  0  0  0999 V2000
  -15.5227   -8.9307   11.6045 C   0  0  0  0  0  0  0  0  0  0  0  0
  -14.1782   -8.3755   11.8920 C   0  0  0  0  0  0  0  0  0  0  0  0
  -13.7142   -8.3391   13.3747 C   0  0  0  0  0  0  0  0  0  0  0  0
  -13.0222   -8.3666   10.4486 N   0  0  0  0  0  0  0  0  0  0  0  0
  -11.1537   -9.1629   10.6446 C   0  0  0  0  0  0  0  0  0  0  0  0
  -10.2657   -9.8644   12.2508 C   0  0  0  0  0  0  0  0  0  0  0  0
  -10.4465   -9.3808   13.8185 C   0  0  0  0  0  0  0  0  0  0  0  0
   -9.8514  -11.6039   12.2852 C   0  0  0  0  0  0  0  0  0  0  0  0
   -8.9843   -9.2653   12.2311 O   0  0  0  0  0  0  0  0  0  0  0  0
  -12.9567   -6.1884   10.9170 S   0  0  0  0  0  0  0  0  0  0  0  0
  -13.2411   -6.2394   12.3674 O   0  0  0  0  0  0  0  0  0  0  0  0
  -14.1896   -6.1686   10.1098 O   0  0  0  0  0  0  0  0  0  0  0  0
  -10.9384   -5.0030   10.4027 C   0  0  0  0  0  0  0  0  0  0  0  0
  -10.1430   -4.2776    8.9091 C   0  0  0  0  0  0  0  0  0  0  0  0
   -9.4646   -3.1321    9.0448 N   0  0  0  0  0  0  0  0  0  0  0  0
   -8.6902   -4.0897    9.2705 N   0  0  0  0  0  0  0  0  0  0  0  0
   -7.6553   -3.7870    8.1925 C   0  0  0  0  0  0  0  0  0  0  0  0
   -7.2164   -2.2338    7.9975 C   0  0  0  0  0  0  0  0  0  0  0  0
   -6.1128   -2.0869    6.9698 C   0  0  0  0  0  0  0  0  0  0  0  0
   -6.6404   -2.3744    5.6961 O   0  0  0  0  0  0  0  0  0  0  0  0
   -7.1714   -3.6875    5.6344 C   0  0  0  0  0  0  0  0  0  0  0  0
   -8.1906   -4.0311    6.7267 C   0  0  0  0  0  0  0  0  0  0  0  0
   -9.6616   -4.2997   10.7733 C   0  0  0  0  0  0  0  0  0  0  0  0
  -15.4534   -9.5840   10.7427 H   0  0  0  0  0  0  0  0  0  0  0  0
  -16.2044   -8.1028   11.4048 H   0  0  0  0  0  0  0  0  0  0  0  0
  -16.0162   -9.4080   12.4539 H   0  0  0  0  0  0  0  0  0  0  0  0
  -14.6320   -7.4003   11.8196 H   0  0  0  0  0  0  0  0  0  0  0  0
  -13.4977   -9.2827   13.8565 H   0  0  0  0  0  0  0  0  0  0  0  0
  -14.5069   -7.8881   13.9875 H   0  0  0  0  0  0  0  0  0  0  0  0
  -12.8007   -7.7867   13.5776 H   0  0  0  0  0  0  0  0  0  0  0  0
  -10.2977   -8.7986   10.1197 H   0  0  0  0  0  0  0  0  0  0  0  0
  -11.2001   -9.7958    9.7391 H   0  0  0  0  0  0  0  0  0  0  0  0
   -9.8108   -8.5491   14.1481 H   0  0  0  0  0  0  0  0  0  0  0  0
  -11.4588   -9.1700   14.1383 H   0  0  0  0  0  0  0  0  0  0  0  0
  -10.0462  -10.1528   14.4992 H   0  0  0  0  0  0  0  0  0  0  0  0
   -9.6890  -11.9233   13.3228 H   0  0  0  0  0  0  0  0  0  0  0  0
  -10.5932  -12.2023   11.7541 H   0  0  0  0  0  0  0  0  0  0  0  0
   -8.9138  -11.9388   11.8481 H   0  0  0  0  0  0  0  0  0  0  0  0
   -8.4904   -9.5040   13.0359 H   0  0  0  0  0  0  0  0  0  0  0  0
  -10.4536   -3.9108    7.8750 H   0  0  0  0  0  0  0  0  0  0  0  0
   -6.9004   -4.5539    8.3045 H   0  0  0  0  0  0  0  0  0  0  0  0
   -8.0823   -1.6423    7.6666 H   0  0  0  0  0  0  0  0  0  0  0  0
   -6.8565   -1.7308    8.8849 H   0  0  0  0  0  0  0  0  0  0  0  0
   -5.7509   -1.0537    6.9531 H   0  0  0  0  0  0  0  0  0  0  0  0
   -5.2546   -2.7346    7.1775 H   0  0  0  0  0  0  0  0  0  0  0  0
   -6.3495   -4.3970    5.6455 H   0  0  0  0  0  0  0  0  0  0  0  0
   -7.6512   -3.7267    4.6560 H   0  0  0  0  0  0  0  0  0  0  0  0
   -9.0533   -3.3864    6.5171 H   0  0  0  0  0  0  0  0  0  0  0  0
   -8.5437   -5.0559    6.6398 H   0  0  0  0  0  0  0  0  0  0  0  0
   -9.1358   -4.1237   11.7026 H   0  0  0  0  0  0  0  0  0  0  0  0
  1  2  1  0
  2  3  1  0
  2  4  1  0
  4  5  1  0
  5  6  1  0
  6  7  1  0
  6  8  1  0
  6  9  1  0
  4 10  1  0
 10 11  2  0
 10 12  2  0
 10 13  1  0
 13 14  1  0
 14 15  2  0
 15 16  1  0
 16 17  1  0
 17 18  1  0
 18 19  1  0
 19 20  1  0
 20 21  1  0
 21 22  1  0
 16 23  1  0
 23 13  2  0
 22 17  1  0
  1 24  1  0
  1 25  1  0
  1 26  1  0
  2 27  1  0
  3 28  1  0
  3 29  1  0
  3 30  1  0
  5 31  1  0
  5 32  1  0
  7 33  1  0
  7 34  1  0
  7 35  1  0
  8 36  1  0
  8 37  1  0
  8 38  1  0
  9 39  1  0
 14 40  1  0
 17 41  1  0
 18 42  1  0
 18 43  1  0
 19 44  1  0
 19 45  1  0
 21 46  1  0
 21 47  1  0
 22 48  1  0
 22 49  1  0
 23 50  1  0
M  END
>  <Energy>  (666) 
877.06700307201402

>  <compound_id>  (666) 
13463

>  <target_id>  (666) 
1

>  <reference_id>  (666) 
127

>  <inspiration_ids>  (666) 
[127, 112]

>  <energy_score>  (666) 
803.317696063594

>  <distance_score>  (666) 
8.95457598601561

>  <path>  (666) 
/opt/xchem-fragalysis-2/maxwin/BulkDock/SCRATCH/511016/C13463-P127/C13463-P127.minimised.mol

>  <scratch_subdir>  (666) 
/opt/xchem-fragalysis-2/maxwin/BulkDock/SCRATCH/511016/C13463-P127

>  <fragmenstein_runtime>  (666) 
20.043795824050903

>  <fragmenstein_outcome>  (666) 
too moved

>  <fragmenstein_mode>  (666) 
expansion

>  <fragmenstein_error>  (666) 


$$$$
C13463-P112
     RDKit          3D

 50 51  0  0  0  0  0  0  0  0999 V2000
  -13.5952   -7.7816   12.8040 C   0  0  0  0  0  0  0  0  0  0  0  0
  -14.3869   -8.3718   11.6146 C   0  0  0  0  0  0  0  0  0  0  0  0
  -15.6959   -7.6434   11.8904 C   0  0  0  0  0  0  0  0  0  0  0  0
  -13.5530   -8.3804   10.1093 N   0  0  0  0  0  0  0  0  0  0  0  0
  -12.4784  -10.1211    9.7079 C   0  0  0  0  0  0  0  0  0  0  0  0
  -10.8996  -11.5876   10.1532 C   0  0  0  0  0  0  0  0  0  0  0  0
  -10.0163  -11.6940   11.9274 C   0  0  0  0  0  0  0  0  0  0  0  0
  -11.1518  -13.1159   11.1582 C   0  0  0  0  0  0  0  0  0  0  0  0
  -10.3095  -12.5092    9.2251 O   0  0  0  0  0  0  0  0  0  0  0  0
  -14.7598   -6.9941    8.7601 S   0  0  0  0  0  0  0  0  0  0  0  0
  -16.1083   -7.1203    9.2467 O   0  0  0  0  0  0  0  0  0  0  0  0
  -14.5233   -7.5521    7.4486 O   0  0  0  0  0  0  0  0  0  0  0  0
  -14.9256   -4.7137    8.4391 C   0  0  0  0  0  0  0  0  0  0  0  0
  -13.7448   -3.3765    8.0091 C   0  0  0  0  0  0  0  0  0  0  0  0
  -14.2441   -2.1779    7.6884 N   0  0  0  0  0  0  0  0  0  0  0  0
  -15.6056   -2.0983    7.9404 N   0  0  0  0  0  0  0  0  0  0  0  0
  -16.1920   -0.7735    7.8187 C   0  0  0  0  0  0  0  0  0  0  0  0
  -15.8918   -0.1456    6.4454 C   0  0  0  0  0  0  0  0  0  0  0  0
  -14.4327    0.3074    6.2543 C   0  0  0  0  0  0  0  0  0  0  0  0
  -13.7712    0.7096    7.4507 O   0  0  0  0  0  0  0  0  0  0  0  0
  -14.6503    1.1981    8.4445 C   0  0  0  0  0  0  0  0  0  0  0  0
  -15.6523    0.1471    8.9324 C   0  0  0  0  0  0  0  0  0  0  0  0
  -16.2468   -3.5596    8.1436 C   0  0  0  0  0  0  0  0  0  0  0  0
  -14.2149   -7.7048   13.7099 H   0  0  0  0  0  0  0  0  0  0  0  0
  -13.2598   -6.7771   12.5764 H   0  0  0  0  0  0  0  0  0  0  0  0
  -12.7651   -8.3616   13.1653 H   0  0  0  0  0  0  0  0  0  0  0  0
  -14.6702   -9.4069   11.7738 H   0  0  0  0  0  0  0  0  0  0  0  0
  -16.4698   -7.6164   11.1572 H   0  0  0  0  0  0  0  0  0  0  0  0
  -15.5444   -6.6444   12.2971 H   0  0  0  0  0  0  0  0  0  0  0  0
  -16.1908   -8.1661   12.7268 H   0  0  0  0  0  0  0  0  0  0  0  0
  -13.3683  -10.7850    9.5902 H   0  0  0  0  0  0  0  0  0  0  0  0
  -12.4975   -9.6944    8.6873 H   0  0  0  0  0  0  0  0  0  0  0  0
   -9.0344  -12.2172   11.7779 H   0  0  0  0  0  0  0  0  0  0  0  0
   -9.9431  -10.6704   12.3723 H   0  0  0  0  0  0  0  0  0  0  0  0
  -10.1879  -12.2476   12.8298 H   0  0  0  0  0  0  0  0  0  0  0  0
  -12.1150  -13.5694   11.0274 H   0  0  0  0  0  0  0  0  0  0  0  0
  -10.3636  -13.7492   10.8875 H   0  0  0  0  0  0  0  0  0  0  0  0
  -11.0710  -13.4135   12.2051 H   0  0  0  0  0  0  0  0  0  0  0  0
   -9.6212  -13.1236    9.5195 H   0  0  0  0  0  0  0  0  0  0  0  0
  -12.6901   -3.4897    7.7779 H   0  0  0  0  0  0  0  0  0  0  0  0
  -17.2706   -0.9213    7.9418 H   0  0  0  0  0  0  0  0  0  0  0  0
  -16.1814   -0.8122    5.6247 H   0  0  0  0  0  0  0  0  0  0  0  0
  -16.5316    0.7421    6.3456 H   0  0  0  0  0  0  0  0  0  0  0  0
  -13.8351   -0.4837    5.7895 H   0  0  0  0  0  0  0  0  0  0  0  0
  -14.4082    1.1515    5.5551 H   0  0  0  0  0  0  0  0  0  0  0  0
  -15.1781    2.0761    8.0513 H   0  0  0  0  0  0  0  0  0  0  0  0
  -14.0493    1.5490    9.2902 H   0  0  0  0  0  0  0  0  0  0  0  0
  -15.1893   -0.4391    9.7359 H   0  0  0  0  0  0  0  0  0  0  0  0
  -16.4910    0.6759    9.4026 H   0  0  0  0  0  0  0  0  0  0  0  0
  -17.3308   -3.6113    8.1176 H   0  0  0  0  0  0  0  0  0  0  0  0
  1  2  1  0
  2  3  1  0
  2  4  1  0
  4  5  1  0
  5  6  1  0
  6  7  1  0
  6  8  1  0
  6  9  1  0
  4 10  1  0
 10 11  2  0
 10 12  2  0
 10 13  1  0
 13 14  1  0
 14 15  2  0
 15 16  1  0
 16 17  1  0
 17 18  1  0
 18 19  1  0
 19 20  1  0
 20 21  1  0
 21 22  1  0
 16 23  1  0
 23 13  2  0
 22 17  1  0
  1 24  1  0
  1 25  1  0
  1 26  1  0
  2 27  1  0
  3 28  1  0
  3 29  1  0
  3 30  1  0
  5 31  1  0
  5 32  1  0
  7 33  1  0
  7 34  1  0
  7 35  1  0
  8 36  1  0
  8 37  1  0
  8 38  1  0
  9 39  1  0
 14 40  1  0
 17 41  1  0
 18 42  1  0
 18 43  1  0
 19 44  1  0
 19 45  1  0
 21 46  1  0
 21 47  1  0
 22 48  1  0
 22 49  1  0
 23 50  1  0
M  END
>  <Energy>  (667) 
838.66834656996446

>  <compound_id>  (667) 
13463

>  <target_id>  (667) 
1

>  <reference_id>  (667) 
112

>  <inspiration_ids>  (667) 
[127, 112]

>  <energy_score>  (667) 
764.9190395615306

>  <distance_score>  (667) 
9.698864071414132

>  <path>  (667) 
/opt/xchem-fragalysis-2/maxwin/BulkDock/SCRATCH/511016/C13463-P112/C13463-P112.minimised.mol

>  <scratch_subdir>  (667) 
/opt/xchem-fragalysis-2/maxwin/BulkDock/SCRATCH/511016/C13463-P112

>  <fragmenstein_runtime>  (667) 
23.92414689064026

>  <fragmenstein_outcome>  (667) 
too moved

>  <fragmenstein_mode>  (667) 
expansion

>  <fragmenstein_error>  (667) 


$$$$
C13464-P127
     RDKit          3D

 50 51  0  0  0  0  0  0  0  0999 V2000
  -15.8138   -5.6608    8.1391 C   0  0  0  0  0  0  0  0  0  0  0  0
  -15.0931   -7.9415    7.5644 S   0  0  0  0  0  0  0  0  0  0  0  0
  -14.3056   -9.1867    9.0312 C   0  0  0  0  0  0  0  0  0  0  0  0
  -14.9383  -10.4202   10.2928 C   0  0  0  0  0  0  0  0  0  0  0  0
  -14.4152   -9.3861   12.0151 C   0  0  0  0  0  0  0  0  0  0  0  0
  -16.4665  -11.7571   10.4941 C   0  0  0  0  0  0  0  0  0  0  0  0
  -17.2303  -13.1721    9.8305 N   0  0  0  0  0  0  0  0  0  0  0  0
  -17.2654  -14.5392   10.5321 C   0  0  0  0  0  0  0  0  0  0  0  0
  -18.0070  -14.4658   11.8662 C   0  0  0  0  0  0  0  0  0  0  0  0
  -17.8604  -15.7113    9.6941 C   0  0  0  0  0  0  0  0  0  0  0  0
  -17.9276  -15.7589    8.3139 C   0  0  0  0  0  0  0  0  0  0  0  0
  -18.3531  -17.0012    7.9619 N   0  0  0  0  0  0  0  0  0  0  0  0
  -18.5894  -17.4884    6.6241 C   0  0  0  0  0  0  0  0  0  0  0  0
  -18.5462  -17.8146    8.9976 N   0  0  0  0  0  0  0  0  0  0  0  0
  -18.4250  -17.0203   10.0735 C   0  0  0  0  0  0  0  0  0  0  0  0
  -18.9361  -17.6010   11.3912 C   0  0  0  0  0  0  0  0  0  0  0  0
  -17.8650  -18.3084   12.2051 C   0  0  0  0  0  0  0  0  0  0  0  0
  -17.8375  -19.8091   11.9117 C   0  0  0  0  0  0  0  0  0  0  0  0
  -19.0564  -20.4805   12.2371 O   0  0  0  0  0  0  0  0  0  0  0  0
  -20.1915  -19.6231   12.3006 C   0  0  0  0  0  0  0  0  0  0  0  0
  -20.1579  -18.5454   11.2243 C   0  0  0  0  0  0  0  0  0  0  0  0
  -15.9310   -4.8260    7.3702 H   0  0  0  0  0  0  0  0  0  0  0  0
  -15.0480   -5.1792    8.7051 H   0  0  0  0  0  0  0  0  0  0  0  0
  -16.8323   -6.1011    8.4018 H   0  0  0  0  0  0  0  0  0  0  0  0
  -13.5821   -9.7347    8.4690 H   0  0  0  0  0  0  0  0  0  0  0  0
  -13.6965   -8.4811    9.5913 H   0  0  0  0  0  0  0  0  0  0  0  0
  -15.7327   -9.8827   10.1129 H   0  0  0  0  0  0  0  0  0  0  0  0
  -15.3861   -9.4799   12.5268 H   0  0  0  0  0  0  0  0  0  0  0  0
  -13.8604   -8.4401   11.7189 H   0  0  0  0  0  0  0  0  0  0  0  0
  -13.6839   -9.3664   12.8653 H   0  0  0  0  0  0  0  0  0  0  0  0
  -17.3479  -11.2557   10.1170 H   0  0  0  0  0  0  0  0  0  0  0  0
  -16.7450  -11.8480   11.5488 H   0  0  0  0  0  0  0  0  0  0  0  0
  -16.6189  -13.2804    9.0194 H   0  0  0  0  0  0  0  0  0  0  0  0
  -16.2358  -14.8920   10.6358 H   0  0  0  0  0  0  0  0  0  0  0  0
  -17.8207  -13.5416   12.4177 H   0  0  0  0  0  0  0  0  0  0  0  0
  -17.7134  -15.2883   12.5259 H   0  0  0  0  0  0  0  0  0  0  0  0
  -19.0928  -14.5020   11.7181 H   0  0  0  0  0  0  0  0  0  0  0  0
  -17.6885  -15.0108    7.5700 H   0  0  0  0  0  0  0  0  0  0  0  0
  -19.6638  -17.6484    6.5044 H   0  0  0  0  0  0  0  0  0  0  0  0
  -18.0452  -18.4269    6.4919 H   0  0  0  0  0  0  0  0  0  0  0  0
  -18.2367  -16.7496    5.9004 H   0  0  0  0  0  0  0  0  0  0  0  0
  -19.2976  -16.7579   11.9891 H   0  0  0  0  0  0  0  0  0  0  0  0
  -18.1093  -18.1707   13.2659 H   0  0  0  0  0  0  0  0  0  0  0  0
  -16.9118  -17.8083   12.0394 H   0  0  0  0  0  0  0  0  0  0  0  0
  -17.0602  -20.3051   12.4975 H   0  0  0  0  0  0  0  0  0  0  0  0
  -17.6194  -19.9962   10.8546 H   0  0  0  0  0  0  0  0  0  0  0  0
  -21.0819  -20.2483   12.1769 H   0  0  0  0  0  0  0  0  0  0  0  0
  -20.2495  -19.1817   13.3023 H   0  0  0  0  0  0  0  0  0  0  0  0
  -21.0807  -17.9534   11.2533 H   0  0  0  0  0  0  0  0  0  0  0  0
  -20.1494  -19.0575   10.2558 H   0  0  0  0  0  0  0  0  0  0  0  0
  1  2  1  0
  2  3  1  0
  3  4  1  0
  4  5  1  0
  4  6  1  0
  6  7  1  0
  7  8  1  0
  8  9  1  0
  8 10  1  0
 10 11  2  0
 11 12  1  0
 12 13  1  0
 12 14  1  0
 14 15  2  0
 15 16  1  0
 16 17  1  0
 17 18  1  0
 18 19  1  0
 19 20  1  0
 20 21  1  0
 15 10  1  0
 21 16  1  0
  1 22  1  0
  1 23  1  0
  1 24  1  0
  3 25  1  0
  3 26  1  0
  4 27  1  0
  5 28  1  0
  5 29  1  0
  5 30  1  0
  6 31  1  0
  6 32  1  0
  7 33  1  0
  8 34  1  0
  9 35  1  0
  9 36  1  0
  9 37  1  0
 11 38  1  0
 13 39  1  0
 13 40  1  0
 13 41  1  0
 16 42  1  0
 17 43  1  0
 17 44  1  0
 18 45  1  0
 18 46  1  0
 20 47  1  0
 20 48  1  0
 21 49  1  0
 21 50  1  0
M  END
>  <Energy>  (668) 
448.25168081247728

>  <compound_id>  (668) 
13464

>  <target_id>  (668) 
1

>  <reference_id>  (668) 
127

>  <inspiration_ids>  (668) 
[127, 112]

>  <energy_score>  (668) 
384.1802887256356

>  <distance_score>  (668) 
10.218814210591711

>  <path>  (668) 
/opt/xchem-fragalysis-2/maxwin/BulkDock/SCRATCH/511016/C13464-P127/C13464-P127.minimised.mol

>  <scratch_subdir>  (668) 
/opt/xchem-fragalysis-2/maxwin/BulkDock/SCRATCH/511016/C13464-P127

>  <fragmenstein_runtime>  (668) 
18.737647533416748

>  <fragmenstein_outcome>  (668) 
too moved

>  <fragmenstein_mode>  (668) 
expansion

>  <fragmenstein_error>  (668) 


$$$$
C13464-P112
     RDKit          3D

 50 51  0  0  0  0  0  0  0  0999 V2000
  -13.4478  -14.5140    4.5057 C   0  0  0  0  0  0  0  0  0  0  0  0
  -13.0683  -16.3090    4.6821 S   0  0  0  0  0  0  0  0  0  0  0  0
  -11.6399  -16.1786    5.8314 C   0  0  0  0  0  0  0  0  0  0  0  0
  -10.4629  -17.0780    6.3437 C   0  0  0  0  0  0  0  0  0  0  0  0
   -9.1003  -16.3932    5.9620 C   0  0  0  0  0  0  0  0  0  0  0  0
  -10.2057  -17.5873    7.8948 C   0  0  0  0  0  0  0  0  0  0  0  0
  -11.1428  -17.7805    9.1047 N   0  0  0  0  0  0  0  0  0  0  0  0
  -11.6889  -19.0922    9.5194 C   0  0  0  0  0  0  0  0  0  0  0  0
  -11.0225  -20.3006    8.7633 C   0  0  0  0  0  0  0  0  0  0  0  0
  -12.9289  -19.4524   10.9312 C   0  0  0  0  0  0  0  0  0  0  0  0
  -12.3693  -20.2927   12.8547 C   0  0  0  0  0  0  0  0  0  0  0  0
  -11.1101  -21.6175   12.7295 N   0  0  0  0  0  0  0  0  0  0  0  0
   -9.9325  -22.0805   13.4040 C   0  0  0  0  0  0  0  0  0  0  0  0
  -12.2066  -22.3226   12.6387 N   0  0  0  0  0  0  0  0  0  0  0  0
  -12.8790  -20.8089   12.7977 C   0  0  0  0  0  0  0  0  0  0  0  0
  -14.4760  -21.5750   13.5328 C   0  0  0  0  0  0  0  0  0  0  0  0
  -14.3627  -23.1290   13.8256 C   0  0  0  0  0  0  0  0  0  0  0  0
  -14.8528  -23.9536   12.6449 C   0  0  0  0  0  0  0  0  0  0  0  0
  -16.2652  -23.7976   12.5452 O   0  0  0  0  0  0  0  0  0  0  0  0
  -16.6268  -22.4654   12.2115 C   0  0  0  0  0  0  0  0  0  0  0  0
  -16.0067  -21.4104   13.1460 C   0  0  0  0  0  0  0  0  0  0  0  0
  -12.5966  -13.9731    4.0898 H   0  0  0  0  0  0  0  0  0  0  0  0
  -14.2886  -14.4112    3.8143 H   0  0  0  0  0  0  0  0  0  0  0  0
  -13.7492  -14.1058    5.4702 H   0  0  0  0  0  0  0  0  0  0  0  0
  -11.1225  -15.7340    4.9907 H   0  0  0  0  0  0  0  0  0  0  0  0
  -12.0060  -15.5559    6.6316 H   0  0  0  0  0  0  0  0  0  0  0  0
  -10.4943  -17.9851    5.7224 H   0  0  0  0  0  0  0  0  0  0  0  0
   -8.2843  -17.1142    6.0973 H   0  0  0  0  0  0  0  0  0  0  0  0
   -9.0654  -16.0977    4.9082 H   0  0  0  0  0  0  0  0  0  0  0  0
   -8.8670  -15.5344    6.5969 H   0  0  0  0  0  0  0  0  0  0  0  0
   -9.4403  -16.8845    8.2155 H   0  0  0  0  0  0  0  0  0  0  0  0
   -9.6011  -18.4971    7.7838 H   0  0  0  0  0  0  0  0  0  0  0  0
  -10.8454  -17.3823    9.9899 H   0  0  0  0  0  0  0  0  0  0  0  0
  -12.6340  -18.6508    9.3093 H   0  0  0  0  0  0  0  0  0  0  0  0
  -11.5371  -21.2548    8.8517 H   0  0  0  0  0  0  0  0  0  0  0  0
  -10.0104  -20.3887    9.1523 H   0  0  0  0  0  0  0  0  0  0  0  0
  -10.8520  -20.2015    7.6903 H   0  0  0  0  0  0  0  0  0  0  0  0
  -11.5582  -19.7343   13.5865 H   0  0  0  0  0  0  0  0  0  0  0  0
   -9.7755  -21.5908   14.3544 H   0  0  0  0  0  0  0  0  0  0  0  0
   -9.0878  -21.9162   12.7350 H   0  0  0  0  0  0  0  0  0  0  0  0
  -10.0208  -23.1594   13.5669 H   0  0  0  0  0  0  0  0  0  0  0  0
  -14.3339  -20.9116   14.3726 H   0  0  0  0  0  0  0  0  0  0  0  0
  -15.0226  -23.3917   14.6620 H   0  0  0  0  0  0  0  0  0  0  0  0
  -13.3830  -23.4855   14.1287 H   0  0  0  0  0  0  0  0  0  0  0  0
  -14.6609  -25.0146   12.8351 H   0  0  0  0  0  0  0  0  0  0  0  0
  -14.3710  -23.6971   11.6965 H   0  0  0  0  0  0  0  0  0  0  0  0
  -16.4048  -22.2945   11.1542 H   0  0  0  0  0  0  0  0  0  0  0  0
  -17.7185  -22.4031   12.2913 H   0  0  0  0  0  0  0  0  0  0  0  0
  -16.3377  -20.4276   12.8229 H   0  0  0  0  0  0  0  0  0  0  0  0
  -16.5567  -21.5546   14.0851 H   0  0  0  0  0  0  0  0  0  0  0  0
  1  2  1  0
  2  3  1  0
  3  4  1  0
  4  5  1  0
  4  6  1  0
  6  7  1  0
  7  8  1  0
  8  9  1  0
  8 10  1  0
 10 11  2  0
 11 12  1  0
 12 13  1  0
 12 14  1  0
 14 15  2  0
 15 16  1  0
 16 17  1  0
 17 18  1  0
 18 19  1  0
 19 20  1  0
 20 21  1  0
 15 10  1  0
 21 16  1  0
  1 22  1  0
  1 23  1  0
  1 24  1  0
  3 25  1  0
  3 26  1  0
  4 27  1  0
  5 28  1  0
  5 29  1  0
  5 30  1  0
  6 31  1  0
  6 32  1  0
  7 33  1  0
  8 34  1  0
  9 35  1  0
  9 36  1  0
  9 37  1  0
 11 38  1  0
 13 39  1  0
 13 40  1  0
 13 41  1  0
 16 42  1  0
 17 43  1  0
 17 44  1  0
 18 45  1  0
 18 46  1  0
 20 47  1  0
 20 48  1  0
 21 49  1  0
 21 50  1  0
M  END
>  <Energy>  (669) 
1209.487007575337

>  <compound_id>  (669) 
13464

>  <target_id>  (669) 
1

>  <reference_id>  (669) 
112

>  <inspiration_ids>  (669) 
[127, 112]

>  <energy_score>  (669) 
1145.415615488493

>  <distance_score>  (669) 
12.00165333817915

>  <path>  (669) 
/opt/xchem-fragalysis-2/maxwin/BulkDock/SCRATCH/511016/C13464-P112/C13464-P112.minimised.mol

>  <scratch_subdir>  (669) 
/opt/xchem-fragalysis-2/maxwin/BulkDock/SCRATCH/511016/C13464-P112

>  <fragmenstein_runtime>  (669) 
17.631199598312378

>  <fragmenstein_outcome>  (669) 
too moved

>  <fragmenstein_mode>  (669) 
expansion

>  <fragmenstein_error>  (669) 


$$$$
C13466-P127
     RDKit          3D

 45 46  0  0  0  0  0  0  0  0999 V2000
   -9.6722  -20.3468   11.8097 C   0  0  0  0  0  0  0  0  0  0  0  0
  -10.6169  -20.3875   12.7503 C   0  0  0  0  0  0  0  0  0  0  0  0
  -10.8423  -18.5689   13.5006 C   0  0  0  0  0  0  0  0  0  0  0  0
  -10.9114  -16.7553   13.1479 N   0  0  0  0  0  0  0  0  0  0  0  0
   -9.7798  -15.7335   12.4843 C   0  0  0  0  0  0  0  0  0  0  0  0
   -8.6576  -15.9742   12.1848 O   0  0  0  0  0  0  0  0  0  0  0  0
  -10.6222  -14.3219   12.2218 N   0  0  0  0  0  0  0  0  0  0  0  0
  -10.1696  -12.8586   11.3495 C   0  0  0  0  0  0  0  0  0  0  0  0
  -11.0855  -11.9585    9.9315 C   0  0  0  0  0  0  0  0  0  0  0  0
  -12.6650  -10.6654    9.4449 C   0  0  0  0  0  0  0  0  0  0  0  0
  -13.2484   -9.4938    8.1809 N   0  0  0  0  0  0  0  0  0  0  0  0
  -13.5825   -8.1404    8.0253 C   0  0  0  0  0  0  0  0  0  0  0  0
  -13.8425   -8.3106    9.3631 C   0  0  0  0  0  0  0  0  0  0  0  0
  -14.6912   -9.3586    9.1738 C   0  0  0  0  0  0  0  0  0  0  0  0
  -14.5094   -9.6860    7.9141 N   0  0  0  0  0  0  0  0  0  0  0  0
  -10.8630  -22.2177   12.6163 C   0  0  0  0  0  0  0  0  0  0  0  0
   -9.7868  -23.0855   13.2670 C   0  0  0  0  0  0  0  0  0  0  0  0
  -10.1770  -24.6074   13.3132 C   0  0  0  0  0  0  0  0  0  0  0  0
  -10.9597  -25.0887   12.2292 O   0  0  0  0  0  0  0  0  0  0  0  0
  -10.6101  -24.3986   11.0569 C   0  0  0  0  0  0  0  0  0  0  0  0
  -11.1771  -23.0035   11.2293 C   0  0  0  0  0  0  0  0  0  0  0  0
   -9.6075  -21.2391   11.2509 H   0  0  0  0  0  0  0  0  0  0  0  0
   -9.1955  -19.4451   11.4248 H   0  0  0  0  0  0  0  0  0  0  0  0
  -10.0824  -18.2882   12.7664 H   0  0  0  0  0  0  0  0  0  0  0  0
  -10.5955  -18.5390   14.5647 H   0  0  0  0  0  0  0  0  0  0  0  0
  -11.7314  -16.2435   13.3665 H   0  0  0  0  0  0  0  0  0  0  0  0
  -11.5805  -14.4446   12.5118 H   0  0  0  0  0  0  0  0  0  0  0  0
   -9.2240  -13.1723   10.8920 H   0  0  0  0  0  0  0  0  0  0  0  0
   -9.9502  -12.1254   12.1272 H   0  0  0  0  0  0  0  0  0  0  0  0
  -10.6235  -12.3108    9.0151 H   0  0  0  0  0  0  0  0  0  0  0  0
  -11.7009  -12.7315   10.4044 H   0  0  0  0  0  0  0  0  0  0  0  0
  -13.5584  -11.1756    9.9945 H   0  0  0  0  0  0  0  0  0  0  0  0
  -13.4995  -11.1295    8.9754 H   0  0  0  0  0  0  0  0  0  0  0  0
  -14.1121   -7.7331    7.1583 H   0  0  0  0  0  0  0  0  0  0  0  0
  -13.5798   -7.7055   10.2134 H   0  0  0  0  0  0  0  0  0  0  0  0
  -15.1703  -10.0732    9.8416 H   0  0  0  0  0  0  0  0  0  0  0  0
  -11.7678  -22.6276   12.9967 H   0  0  0  0  0  0  0  0  0  0  0  0
   -8.9394  -22.9554   12.6020 H   0  0  0  0  0  0  0  0  0  0  0  0
   -9.4854  -22.7314   14.2530 H   0  0  0  0  0  0  0  0  0  0  0  0
  -10.7519  -24.8608   14.1967 H   0  0  0  0  0  0  0  0  0  0  0  0
   -9.3081  -25.2553   13.3392 H   0  0  0  0  0  0  0  0  0  0  0  0
  -11.0860  -24.8969   10.2057 H   0  0  0  0  0  0  0  0  0  0  0  0
   -9.5279  -24.4232   10.8888 H   0  0  0  0  0  0  0  0  0  0  0  0
  -11.0106  -22.4432   10.3201 H   0  0  0  0  0  0  0  0  0  0  0  0
  -12.2535  -23.2373   11.2745 H   0  0  0  0  0  0  0  0  0  0  0  0
  1  2  2  0
  2  3  1  0
  3  4  1  0
  4  5  1  0
  5  6  2  0
  5  7  1  0
  7  8  1  0
  8  9  1  0
  9 10  1  0
 10 11  1  0
 11 12  1  0
 12 13  2  0
 13 14  1  0
 14 15  2  0
  2 16  1  0
 16 17  1  0
 17 18  1  0
 18 19  1  0
 19 20  1  0
 20 21  1  0
 15 11  1  0
 21 16  1  0
  1 22  1  0
  1 23  1  0
  3 24  1  0
  3 25  1  0
  4 26  1  0
  7 27  1  0
  8 28  1  0
  8 29  1  0
  9 30  1  0
  9 31  1  0
 10 32  1  0
 10 33  1  0
 12 34  1  0
 13 35  1  0
 14 36  1  0
 16 37  1  0
 17 38  1  0
 17 39  1  0
 18 40  1  0
 18 41  1  0
 20 42  1  0
 20 43  1  0
 21 44  1  0
 21 45  1  0
M  END
>  <Energy>  (670) 
738.17847577609848

>  <compound_id>  (670) 
13466

>  <target_id>  (670) 
1

>  <reference_id>  (670) 
127

>  <inspiration_ids>  (670) 
[127, 112]

>  <energy_score>  (670) 
766.7354394183451

>  <distance_score>  (670) 
8.662881972691588

>  <path>  (670) 
/opt/xchem-fragalysis-2/maxwin/BulkDock/SCRATCH/511016/C13466-P127/C13466-P127.minimised.mol

>  <scratch_subdir>  (670) 
/opt/xchem-fragalysis-2/maxwin/BulkDock/SCRATCH/511016/C13466-P127

>  <fragmenstein_runtime>  (670) 
19.603341817855835

>  <fragmenstein_outcome>  (670) 
too moved

>  <fragmenstein_mode>  (670) 
expansion

>  <fragmenstein_error>  (670) 


$$$$
C13466-P112
     RDKit          3D

 45 46  0  0  0  0  0  0  0  0999 V2000
   -8.2074  -25.0917   11.6603 C   0  0  0  0  0  0  0  0  0  0  0  0
   -8.6171  -24.0282   12.3987 C   0  0  0  0  0  0  0  0  0  0  0  0
   -7.5693  -22.7267   12.6563 C   0  0  0  0  0  0  0  0  0  0  0  0
   -6.9254  -21.4034   12.4513 N   0  0  0  0  0  0  0  0  0  0  0  0
   -7.4855  -20.1087   11.9371 C   0  0  0  0  0  0  0  0  0  0  0  0
   -8.5437  -19.8681   11.4976 O   0  0  0  0  0  0  0  0  0  0  0  0
   -6.2971  -19.1238   12.2632 N   0  0  0  0  0  0  0  0  0  0  0  0
   -6.2210  -17.5309   12.2053 C   0  0  0  0  0  0  0  0  0  0  0  0
   -7.0506  -16.6472   13.1719 C   0  0  0  0  0  0  0  0  0  0  0  0
   -6.6379  -15.1596   12.9903 C   0  0  0  0  0  0  0  0  0  0  0  0
   -7.7207  -14.1878   12.9572 N   0  0  0  0  0  0  0  0  0  0  0  0
   -8.6281  -14.0345   11.9521 C   0  0  0  0  0  0  0  0  0  0  0  0
   -9.4085  -12.9686   12.3066 C   0  0  0  0  0  0  0  0  0  0  0  0
   -8.8463  -12.4931   13.5022 C   0  0  0  0  0  0  0  0  0  0  0  0
   -7.7990  -13.2214   13.8926 N   0  0  0  0  0  0  0  0  0  0  0  0
   -9.9926  -24.0588   13.1076 C   0  0  0  0  0  0  0  0  0  0  0  0
  -10.3713  -25.4021   13.7859 C   0  0  0  0  0  0  0  0  0  0  0  0
  -11.8687  -25.6992   13.7030 C   0  0  0  0  0  0  0  0  0  0  0  0
  -12.3443  -25.7859   12.3667 O   0  0  0  0  0  0  0  0  0  0  0  0
  -11.7798  -24.8374   11.4663 C   0  0  0  0  0  0  0  0  0  0  0  0
  -11.1144  -23.6515   12.1524 C   0  0  0  0  0  0  0  0  0  0  0  0
   -7.2274  -25.1198   11.1880 H   0  0  0  0  0  0  0  0  0  0  0  0
   -8.8298  -25.9612   11.4764 H   0  0  0  0  0  0  0  0  0  0  0  0
   -8.4986  -22.1649   12.5372 H   0  0  0  0  0  0  0  0  0  0  0  0
   -6.7944  -23.1817   12.0360 H   0  0  0  0  0  0  0  0  0  0  0  0
   -5.9541  -21.2792   12.6792 H   0  0  0  0  0  0  0  0  0  0  0  0
   -5.4938  -19.6544   12.5525 H   0  0  0  0  0  0  0  0  0  0  0  0
   -6.3687  -17.1515   11.1993 H   0  0  0  0  0  0  0  0  0  0  0  0
   -5.1844  -17.3036   12.5016 H   0  0  0  0  0  0  0  0  0  0  0  0
   -8.1272  -16.7614   13.0364 H   0  0  0  0  0  0  0  0  0  0  0  0
   -6.8301  -16.9218   14.2086 H   0  0  0  0  0  0  0  0  0  0  0  0
   -5.9579  -14.8696   13.8007 H   0  0  0  0  0  0  0  0  0  0  0  0
   -6.0909  -15.0100   12.0509 H   0  0  0  0  0  0  0  0  0  0  0  0
   -8.6656  -14.7032   11.1074 H   0  0  0  0  0  0  0  0  0  0  0  0
  -10.2548  -12.6029   11.7532 H   0  0  0  0  0  0  0  0  0  0  0  0
   -9.1268  -11.6396   14.1007 H   0  0  0  0  0  0  0  0  0  0  0  0
   -9.9369  -23.3038   13.9016 H   0  0  0  0  0  0  0  0  0  0  0  0
   -9.8407  -26.2476   13.3385 H   0  0  0  0  0  0  0  0  0  0  0  0
  -10.0619  -25.3762   14.8362 H   0  0  0  0  0  0  0  0  0  0  0  0
  -12.4628  -24.9428   14.2209 H   0  0  0  0  0  0  0  0  0  0  0  0
  -12.0832  -26.6553   14.1919 H   0  0  0  0  0  0  0  0  0  0  0  0
  -12.5861  -24.4884   10.8129 H   0  0  0  0  0  0  0  0  0  0  0  0
  -11.0682  -25.3695   10.8275 H   0  0  0  0  0  0  0  0  0  0  0  0
  -10.7324  -22.9502   11.4120 H   0  0  0  0  0  0  0  0  0  0  0  0
  -11.8865  -23.1356   12.7284 H   0  0  0  0  0  0  0  0  0  0  0  0
  1  2  2  0
  2  3  1  0
  3  4  1  0
  4  5  1  0
  5  6  2  0
  5  7  1  0
  7  8  1  0
  8  9  1  0
  9 10  1  0
 10 11  1  0
 11 12  1  0
 12 13  2  0
 13 14  1  0
 14 15  2  0
  2 16  1  0
 16 17  1  0
 17 18  1  0
 18 19  1  0
 19 20  1  0
 20 21  1  0
 15 11  1  0
 21 16  1  0
  1 22  1  0
  1 23  1  0
  3 24  1  0
  3 25  1  0
  4 26  1  0
  7 27  1  0
  8 28  1  0
  8 29  1  0
  9 30  1  0
  9 31  1  0
 10 32  1  0
 10 33  1  0
 12 34  1  0
 13 35  1  0
 14 36  1  0
 16 37  1  0
 17 38  1  0
 17 39  1  0
 18 40  1  0
 18 41  1  0
 20 42  1  0
 20 43  1  0
 21 44  1  0
 21 45  1  0
M  END
>  <Energy>  (671) 
74.491157321730711

>  <compound_id>  (671) 
13466

>  <target_id>  (671) 
1

>  <reference_id>  (671) 
112

>  <inspiration_ids>  (671) 
[127, 112]

>  <energy_score>  (671) 
103.04812096398189

>  <distance_score>  (671) 
9.721660472028628

>  <path>  (671) 
/opt/xchem-fragalysis-2/maxwin/BulkDock/SCRATCH/511016/C13466-P112/C13466-P112.minimised.mol

>  <scratch_subdir>  (671) 
/opt/xchem-fragalysis-2/maxwin/BulkDock/SCRATCH/511016/C13466-P112

>  <fragmenstein_runtime>  (671) 
12.175776243209839

>  <fragmenstein_outcome>  (671) 
too moved

>  <fragmenstein_mode>  (671) 
expansion

>  <fragmenstein_error>  (671) 


$$$$
C13474-P127
     RDKit          3D

 52 53  0  0  0  0  0  0  0  0999 V2000
   -9.9190  -21.6813   13.4661 C   0  0  0  0  0  0  0  0  0  0  0  0
   -8.4835  -21.9609   13.2616 C   0  0  0  0  0  0  0  0  0  0  0  0
   -8.7142  -22.7502   12.0760 N   0  0  0  0  0  0  0  0  0  0  0  0
   -6.8547  -22.4979   11.9648 C   0  0  0  0  0  0  0  0  0  0  0  0
   -5.8695  -20.7772   11.8718 C   0  0  0  0  0  0  0  0  0  0  0  0
   -4.7883  -19.5541   12.3279 N   0  0  0  0  0  0  0  0  0  0  0  0
   -5.0504  -18.0781   12.7659 C   0  0  0  0  0  0  0  0  0  0  0  0
   -6.0901  -17.4950   12.9587 O   0  0  0  0  0  0  0  0  0  0  0  0
   -3.8261  -17.1310   12.8829 C   0  0  0  0  0  0  0  0  0  0  0  0
   -4.2154  -15.6668   12.7486 N   0  0  0  0  0  0  0  0  0  0  0  0
   -5.1323  -14.9290   13.4819 C   0  0  0  0  0  0  0  0  0  0  0  0
   -5.0263  -13.6127   13.0902 C   0  0  0  0  0  0  0  0  0  0  0  0
   -3.9686  -13.6254   12.1729 C   0  0  0  0  0  0  0  0  0  0  0  0
   -3.5171  -14.8562   11.9084 N   0  0  0  0  0  0  0  0  0  0  0  0
   -9.1536  -24.2475   11.9213 C   0  0  0  0  0  0  0  0  0  0  0  0
   -9.2957  -25.0714   12.7993 O   0  0  0  0  0  0  0  0  0  0  0  0
   -9.6282  -24.8704   10.5195 C   0  0  0  0  0  0  0  0  0  0  0  0
   -9.8670  -24.4120    9.0999 C   0  0  0  0  0  0  0  0  0  0  0  0
  -11.1070  -25.4826   10.9764 C   0  0  0  0  0  0  0  0  0  0  0  0
  -11.7888  -26.4804   10.0193 C   0  0  0  0  0  0  0  0  0  0  0  0
  -13.1014  -26.9819   10.6312 C   0  0  0  0  0  0  0  0  0  0  0  0
  -13.9855  -25.8967   10.9216 O   0  0  0  0  0  0  0  0  0  0  0  0
  -13.4216  -24.9830   11.8612 C   0  0  0  0  0  0  0  0  0  0  0  0
  -12.1355  -24.3832   11.3055 C   0  0  0  0  0  0  0  0  0  0  0  0
  -10.0433  -21.2020   14.4170 H   0  0  0  0  0  0  0  0  0  0  0  0
  -10.4594  -22.6284   13.4713 H   0  0  0  0  0  0  0  0  0  0  0  0
  -10.3462  -21.0757   12.6669 H   0  0  0  0  0  0  0  0  0  0  0  0
   -8.2463  -22.5581   14.1361 H   0  0  0  0  0  0  0  0  0  0  0  0
   -7.9234  -21.0531   13.2410 H   0  0  0  0  0  0  0  0  0  0  0  0
   -6.2101  -23.3897   11.9642 H   0  0  0  0  0  0  0  0  0  0  0  0
   -7.1222  -22.6820   10.9479 H   0  0  0  0  0  0  0  0  0  0  0  0
   -6.6451  -20.0603   12.1324 H   0  0  0  0  0  0  0  0  0  0  0  0
   -5.6428  -20.7743   10.8317 H   0  0  0  0  0  0  0  0  0  0  0  0
   -3.7950  -19.6900   12.1798 H   0  0  0  0  0  0  0  0  0  0  0  0
   -3.3446  -17.2008   13.8601 H   0  0  0  0  0  0  0  0  0  0  0  0
   -3.1179  -17.3339   12.0748 H   0  0  0  0  0  0  0  0  0  0  0  0
   -5.7717  -15.4095   14.2100 H   0  0  0  0  0  0  0  0  0  0  0  0
   -5.5857  -12.7714   13.4719 H   0  0  0  0  0  0  0  0  0  0  0  0
   -3.4766  -12.7955   11.6867 H   0  0  0  0  0  0  0  0  0  0  0  0
   -9.0174  -25.7795   10.4424 H   0  0  0  0  0  0  0  0  0  0  0  0
  -10.1742  -25.2510    8.4656 H   0  0  0  0  0  0  0  0  0  0  0  0
  -10.6535  -23.6574    9.0155 H   0  0  0  0  0  0  0  0  0  0  0  0
   -8.9736  -24.0735    8.6004 H   0  0  0  0  0  0  0  0  0  0  0  0
  -10.9586  -26.0699   11.8922 H   0  0  0  0  0  0  0  0  0  0  0  0
  -11.1238  -27.3243    9.8087 H   0  0  0  0  0  0  0  0  0  0  0  0
  -12.0378  -25.9923    9.0709 H   0  0  0  0  0  0  0  0  0  0  0  0
  -13.6101  -27.6418    9.9213 H   0  0  0  0  0  0  0  0  0  0  0  0
  -12.9202  -27.5585   11.5459 H   0  0  0  0  0  0  0  0  0  0  0  0
  -14.1561  -24.1907   12.0374 H   0  0  0  0  0  0  0  0  0  0  0  0
  -13.2481  -25.4948   12.8149 H   0  0  0  0  0  0  0  0  0  0  0  0
  -12.3808  -23.8620   10.3774 H   0  0  0  0  0  0  0  0  0  0  0  0
  -11.7404  -23.6555   12.0137 H   0  0  0  0  0  0  0  0  0  0  0  0
  1  2  1  0
  2  3  1  0
  3  4  1  0
  4  5  1  0
  5  6  1  0
  6  7  1  0
  7  8  2  0
  7  9  1  0
  9 10  1  0
 10 11  1  0
 11 12  2  0
 12 13  1  0
 13 14  2  0
  3 15  1  0
 15 16  2  0
 15 17  1  0
 17 18  1  0
 17 19  1  0
 19 20  1  0
 20 21  1  0
 21 22  1  0
 22 23  1  0
 23 24  1  0
 14 10  1  0
 24 19  1  0
  1 25  1  0
  1 26  1  0
  1 27  1  0
  2 28  1  0
  2 29  1  0
  4 30  1  0
  4 31  1  0
  5 32  1  0
  5 33  1  0
  6 34  1  0
  9 35  1  0
  9 36  1  0
 11 37  1  0
 12 38  1  0
 13 39  1  0
 17 40  1  0
 18 41  1  0
 18 42  1  0
 18 43  1  0
 19 44  1  0
 20 45  1  0
 20 46  1  0
 21 47  1  0
 21 48  1  0
 23 49  1  0
 23 50  1  0
 24 51  1  0
 24 52  1  0
M  END
>  <Energy>  (672) 
356.71636232027117

>  <compound_id>  (672) 
13474

>  <target_id>  (672) 
1

>  <reference_id>  (672) 
127

>  <inspiration_ids>  (672) 
[127, 112]

>  <energy_score>  (672) 
268.0318419431557

>  <distance_score>  (672) 
10.747083856920645

>  <path>  (672) 
/opt/xchem-fragalysis-2/maxwin/BulkDock/SCRATCH/511016/C13474-P127/C13474-P127.minimised.mol

>  <scratch_subdir>  (672) 
/opt/xchem-fragalysis-2/maxwin/BulkDock/SCRATCH/511016/C13474-P127

>  <fragmenstein_runtime>  (672) 
25.77442717552185

>  <fragmenstein_outcome>  (672) 
too moved

>  <fragmenstein_mode>  (672) 
expansion

>  <fragmenstein_error>  (672) 


$$$$
C13474-P112
     RDKit          3D

 52 53  0  0  0  0  0  0  0  0999 V2000
  -12.2086  -17.0960   16.2883 C   0  0  0  0  0  0  0  0  0  0  0  0
  -11.2576  -17.0198   15.0952 C   0  0  0  0  0  0  0  0  0  0  0  0
  -10.4400  -18.2055   14.5403 N   0  0  0  0  0  0  0  0  0  0  0  0
  -10.0747  -16.9652   13.2829 C   0  0  0  0  0  0  0  0  0  0  0  0
   -9.1866  -15.4974   13.3782 C   0  0  0  0  0  0  0  0  0  0  0  0
   -9.6327  -14.3772   12.3543 N   0  0  0  0  0  0  0  0  0  0  0  0
  -10.9643  -13.8318   12.0412 C   0  0  0  0  0  0  0  0  0  0  0  0
  -12.0392  -14.1763   12.4431 O   0  0  0  0  0  0  0  0  0  0  0  0
  -10.9588  -12.4106   10.7178 C   0  0  0  0  0  0  0  0  0  0  0  0
  -12.2865  -11.1393    9.8858 N   0  0  0  0  0  0  0  0  0  0  0  0
  -13.8054  -11.0015    9.6235 C   0  0  0  0  0  0  0  0  0  0  0  0
  -14.0551   -9.8787    8.8683 C   0  0  0  0  0  0  0  0  0  0  0  0
  -13.2242   -9.1266    9.5895 C   0  0  0  0  0  0  0  0  0  0  0  0
  -12.0147   -9.6756    9.8495 N   0  0  0  0  0  0  0  0  0  0  0  0
  -10.9544  -19.7845   13.8068 C   0  0  0  0  0  0  0  0  0  0  0  0
  -12.1289  -20.0178   13.5896 O   0  0  0  0  0  0  0  0  0  0  0  0
   -9.9196  -21.3347   13.4131 C   0  0  0  0  0  0  0  0  0  0  0  0
   -8.8812  -21.0996   12.2489 C   0  0  0  0  0  0  0  0  0  0  0  0
  -10.2775  -22.9983   13.0067 C   0  0  0  0  0  0  0  0  0  0  0  0
  -10.8070  -24.0798   13.9336 C   0  0  0  0  0  0  0  0  0  0  0  0
  -10.9024  -25.4811   13.3224 C   0  0  0  0  0  0  0  0  0  0  0  0
  -11.9096  -25.5232   12.3065 O   0  0  0  0  0  0  0  0  0  0  0  0
  -12.0932  -24.2675   11.6473 C   0  0  0  0  0  0  0  0  0  0  0  0
  -10.7962  -23.4556   11.6413 C   0  0  0  0  0  0  0  0  0  0  0  0
  -11.6616  -17.1826   17.2291 H   0  0  0  0  0  0  0  0  0  0  0  0
  -12.7469  -16.1424   16.3696 H   0  0  0  0  0  0  0  0  0  0  0  0
  -12.9717  -17.8634   16.2042 H   0  0  0  0  0  0  0  0  0  0  0  0
  -11.6700  -16.2625   14.4371 H   0  0  0  0  0  0  0  0  0  0  0  0
  -10.4348  -16.4541   15.5665 H   0  0  0  0  0  0  0  0  0  0  0  0
  -10.8031  -16.6999   12.5501 H   0  0  0  0  0  0  0  0  0  0  0  0
   -9.3564  -17.5537   12.7434 H   0  0  0  0  0  0  0  0  0  0  0  0
   -8.1288  -15.6996   13.1897 H   0  0  0  0  0  0  0  0  0  0  0  0
   -9.3254  -15.0541   14.3662 H   0  0  0  0  0  0  0  0  0  0  0  0
   -8.9303  -13.8008   11.9089 H   0  0  0  0  0  0  0  0  0  0  0  0
  -10.3082  -11.7837   11.3086 H   0  0  0  0  0  0  0  0  0  0  0  0
  -10.4153  -12.6574    9.8081 H   0  0  0  0  0  0  0  0  0  0  0  0
  -14.5025  -11.4835   10.2639 H   0  0  0  0  0  0  0  0  0  0  0  0
  -14.9596   -9.4965    8.4486 H   0  0  0  0  0  0  0  0  0  0  0  0
  -13.3874   -8.1135    9.8923 H   0  0  0  0  0  0  0  0  0  0  0  0
   -9.4580  -21.5580   14.3890 H   0  0  0  0  0  0  0  0  0  0  0  0
   -9.2989  -21.5566   11.3952 H   0  0  0  0  0  0  0  0  0  0  0  0
   -8.7117  -20.0631   11.9249 H   0  0  0  0  0  0  0  0  0  0  0  0
   -7.9153  -21.5578   12.5024 H   0  0  0  0  0  0  0  0  0  0  0  0
   -9.2271  -23.3329   12.9581 H   0  0  0  0  0  0  0  0  0  0  0  0
  -11.8569  -23.8426   14.0787 H   0  0  0  0  0  0  0  0  0  0  0  0
  -10.1816  -24.1374   14.8252 H   0  0  0  0  0  0  0  0  0  0  0  0
   -9.9460  -25.8056   12.8975 H   0  0  0  0  0  0  0  0  0  0  0  0
  -11.1868  -26.2091   14.0890 H   0  0  0  0  0  0  0  0  0  0  0  0
  -12.4053  -24.4878   10.6214 H   0  0  0  0  0  0  0  0  0  0  0  0
  -12.9151  -23.7299   12.1315 H   0  0  0  0  0  0  0  0  0  0  0  0
  -10.8265  -22.6523   10.9369 H   0  0  0  0  0  0  0  0  0  0  0  0
  -10.0400  -24.1605   11.2686 H   0  0  0  0  0  0  0  0  0  0  0  0
  1  2  1  0
  2  3  1  0
  3  4  1  0
  4  5  1  0
  5  6  1  0
  6  7  1  0
  7  8  2  0
  7  9  1  0
  9 10  1  0
 10 11  1  0
 11 12  2  0
 12 13  1  0
 13 14  2  0
  3 15  1  0
 15 16  2  0
 15 17  1  0
 17 18  1  0
 17 19  1  0
 19 20  1  0
 20 21  1  0
 21 22  1  0
 22 23  1  0
 23 24  1  0
 14 10  1  0
 24 19  1  0
  1 25  1  0
  1 26  1  0
  1 27  1  0
  2 28  1  0
  2 29  1  0
  4 30  1  0
  4 31  1  0
  5 32  1  0
  5 33  1  0
  6 34  1  0
  9 35  1  0
  9 36  1  0
 11 37  1  0
 12 38  1  0
 13 39  1  0
 17 40  1  0
 18 41  1  0
 18 42  1  0
 18 43  1  0
 19 44  1  0
 20 45  1  0
 20 46  1  0
 21 47  1  0
 21 48  1  0
 23 49  1  0
 23 50  1  0
 24 51  1  0
 24 52  1  0
M  END
>  <Energy>  (673) 
557.12859691512415

>  <compound_id>  (673) 
13474

>  <target_id>  (673) 
1

>  <reference_id>  (673) 
112

>  <inspiration_ids>  (673) 
[127, 112]

>  <energy_score>  (673) 
468.4440765380009

>  <distance_score>  (673) 
8.469209898060708

>  <path>  (673) 
/opt/xchem-fragalysis-2/maxwin/BulkDock/SCRATCH/511016/C13474-P112/C13474-P112.minimised.mol

>  <scratch_subdir>  (673) 
/opt/xchem-fragalysis-2/maxwin/BulkDock/SCRATCH/511016/C13474-P112

>  <fragmenstein_runtime>  (673) 
16.408576250076294

>  <fragmenstein_outcome>  (673) 
too moved

>  <fragmenstein_mode>  (673) 
expansion

>  <fragmenstein_error>  (673) 


$$$$
C13494-P112
     RDKit          2D

  0  0  0  0  0  0  0  0  0  0999 V2000
M  END
>  <compound_id>  (674) 
13494

>  <target_id>  (674) 
1

>  <reference_id>  (674) 
112

>  <inspiration_ids>  (674) 
[127, 112]

>  <energy_score>  (674) 
nan

>  <distance_score>  (674) 
nan

>  <path>  (674) 
/opt/xchem-fragalysis-2/maxwin/BulkDock/SCRATCH/511016/C13494-P112/C13494-P112.minimised.mol

>  <scratch_subdir>  (674) 
/opt/xchem-fragalysis-2/maxwin/BulkDock/SCRATCH/511016/C13494-P112

>  <fragmenstein_runtime>  (674) 
1.0621163845062256

>  <fragmenstein_outcome>  (674) 
too distant

>  <fragmenstein_mode>  (674) 
expansion

>  <fragmenstein_error>  (674) 
DistanceError: hit0

$$$$
C13495-P112
     RDKit          2D

  0  0  0  0  0  0  0  0  0  0999 V2000
M  END
>  <compound_id>  (675) 
13495

>  <target_id>  (675) 
1

>  <reference_id>  (675) 
112

>  <inspiration_ids>  (675) 
[127, 112]

>  <energy_score>  (675) 
nan

>  <distance_score>  (675) 
nan

>  <path>  (675) 
/opt/xchem-fragalysis-2/maxwin/BulkDock/SCRATCH/511016/C13495-P112/C13495-P112.minimised.mol

>  <scratch_subdir>  (675) 
/opt/xchem-fragalysis-2/maxwin/BulkDock/SCRATCH/511016/C13495-P112

>  <fragmenstein_runtime>  (675) 
0.3802223205566406

>  <fragmenstein_outcome>  (675) 
too distant

>  <fragmenstein_mode>  (675) 
expansion

>  <fragmenstein_error>  (675) 
DistanceError: hit1

$$$$
C13496-P112
     RDKit          2D

  0  0  0  0  0  0  0  0  0  0999 V2000
M  END
>  <compound_id>  (676) 
13496

>  <target_id>  (676) 
1

>  <reference_id>  (676) 
112

>  <inspiration_ids>  (676) 
[127, 112]

>  <energy_score>  (676) 
nan

>  <distance_score>  (676) 
nan

>  <path>  (676) 
/opt/xchem-fragalysis-2/maxwin/BulkDock/SCRATCH/511016/C13496-P112/C13496-P112.minimised.mol

>  <scratch_subdir>  (676) 
/opt/xchem-fragalysis-2/maxwin/BulkDock/SCRATCH/511016/C13496-P112

>  <fragmenstein_runtime>  (676) 
0.5080997943878174

>  <fragmenstein_outcome>  (676) 
too distant

>  <fragmenstein_mode>  (676) 
expansion

>  <fragmenstein_error>  (676) 
DistanceError: hit1

$$$$
C13497-P127
     RDKit          3D

 35 37  0  0  0  0  0  0  0  0999 V2000
   -9.5806  -19.4451    9.7792 O   0  0  0  0  0  0  0  0  0  0  0  0
   -9.4111  -19.7422   10.9875 C   0  0  0  0  0  0  0  0  0  0  0  0
   -8.9138  -18.7866   11.7400 O   0  0  0  0  0  0  0  0  0  0  0  0
   -8.8775  -17.4702   11.3094 C   0  0  0  0  0  0  0  0  0  0  0  0
   -9.1312  -16.5554   12.5156 C   0  0  0  0  0  0  0  0  0  0  0  0
  -10.2017  -15.7476   12.8924 C   0  0  0  0  0  0  0  0  0  0  0  0
   -9.6119  -14.6696   13.5663 C   0  0  0  0  0  0  0  0  0  0  0  0
   -8.3134  -14.8668   13.7998 N   0  0  0  0  0  0  0  0  0  0  0  0
   -8.0604  -16.0560   13.2482 N   0  0  0  0  0  0  0  0  0  0  0  0
   -9.8783  -21.2841   11.8709 C   0  0  0  0  0  0  0  0  0  0  0  0
   -9.2456  -21.7133   13.0618 C   0  0  0  0  0  0  0  0  0  0  0  0
   -9.7272  -22.9157   13.4935 C   0  0  0  0  0  0  0  0  0  0  0  0
  -10.6576  -23.3647   12.6977 N   0  0  0  0  0  0  0  0  0  0  0  0
  -10.6601  -22.5522   11.6044 N   0  0  0  0  0  0  0  0  0  0  0  0
  -11.1456  -23.4336   10.5003 C   0  0  0  0  0  0  0  0  0  0  0  0
  -11.3957  -23.0961    9.0028 C   0  0  0  0  0  0  0  0  0  0  0  0
  -12.7315  -23.7389    8.6027 C   0  0  0  0  0  0  0  0  0  0  0  0
  -12.9533  -24.8410    9.6167 C   0  0  0  0  0  0  0  0  0  0  0  0
  -12.4150  -24.2611   10.9106 C   0  0  0  0  0  0  0  0  0  0  0  0
   -7.8698  -17.3177   10.9135 H   0  0  0  0  0  0  0  0  0  0  0  0
   -9.6227  -17.3099   10.5309 H   0  0  0  0  0  0  0  0  0  0  0  0
  -11.1625  -15.7049   12.4378 H   0  0  0  0  0  0  0  0  0  0  0  0
  -10.0475  -13.7273   13.8433 H   0  0  0  0  0  0  0  0  0  0  0  0
   -7.1065  -16.4012   13.2541 H   0  0  0  0  0  0  0  0  0  0  0  0
   -8.3751  -21.2724   13.5043 H   0  0  0  0  0  0  0  0  0  0  0  0
   -9.4306  -23.4785   14.3587 H   0  0  0  0  0  0  0  0  0  0  0  0
  -10.3354  -24.1854   10.4566 H   0  0  0  0  0  0  0  0  0  0  0  0
  -10.6235  -23.5892    8.3979 H   0  0  0  0  0  0  0  0  0  0  0  0
  -11.3656  -22.0341    8.7473 H   0  0  0  0  0  0  0  0  0  0  0  0
  -13.5480  -23.0105    8.6470 H   0  0  0  0  0  0  0  0  0  0  0  0
  -12.7030  -24.1255    7.5789 H   0  0  0  0  0  0  0  0  0  0  0  0
  -14.0053  -25.1297    9.6956 H   0  0  0  0  0  0  0  0  0  0  0  0
  -12.3768  -25.7305    9.3361 H   0  0  0  0  0  0  0  0  0  0  0  0
  -12.1749  -25.0699   11.6105 H   0  0  0  0  0  0  0  0  0  0  0  0
  -13.1714  -23.6324   11.3933 H   0  0  0  0  0  0  0  0  0  0  0  0
  1  2  2  0
  2  3  1  0
  3  4  1  0
  4  5  1  0
  5  6  2  0
  6  7  1  0
  7  8  2  0
  8  9  1  0
  2 10  1  0
 10 11  2  0
 11 12  1  0
 12 13  2  0
 13 14  1  0
 14 15  1  0
 15 16  1  0
 16 17  1  0
 17 18  1  0
 18 19  1  0
  9  5  1  0
 14 10  1  0
 19 15  1  0
  4 20  1  0
  4 21  1  0
  6 22  1  0
  7 23  1  0
  9 24  1  0
 11 25  1  0
 12 26  1  0
 15 27  1  0
 16 28  1  0
 16 29  1  0
 17 30  1  0
 17 31  1  0
 18 32  1  0
 18 33  1  0
 19 34  1  0
 19 35  1  0
M  END
>  <Energy>  (677) 
100.98513457891252

>  <compound_id>  (677) 
13497

>  <target_id>  (677) 
1

>  <reference_id>  (677) 
127

>  <inspiration_ids>  (677) 
[127, 112]

>  <energy_score>  (677) 
77.22409361059252

>  <distance_score>  (677) 
10.154409517322067

>  <path>  (677) 
/opt/xchem-fragalysis-2/maxwin/BulkDock/SCRATCH/511016/C13497-P127/C13497-P127.minimised.mol

>  <scratch_subdir>  (677) 
/opt/xchem-fragalysis-2/maxwin/BulkDock/SCRATCH/511016/C13497-P127

>  <fragmenstein_runtime>  (677) 
9.522343158721924

>  <fragmenstein_outcome>  (677) 
too moved

>  <fragmenstein_mode>  (677) 
expansion

>  <fragmenstein_error>  (677) 


$$$$
C13497-P112
     RDKit          3D

 35 37  0  0  0  0  0  0  0  0999 V2000
  -10.3534  -12.6709    9.4645 O   0  0  0  0  0  0  0  0  0  0  0  0
  -10.4546  -11.9281   10.4158 C   0  0  0  0  0  0  0  0  0  0  0  0
  -10.9938  -10.2105   10.1246 O   0  0  0  0  0  0  0  0  0  0  0  0
  -12.6781   -9.2776   10.0674 C   0  0  0  0  0  0  0  0  0  0  0  0
  -13.5434   -7.8868   11.2241 C   0  0  0  0  0  0  0  0  0  0  0  0
  -14.1401   -6.4813   11.3122 C   0  0  0  0  0  0  0  0  0  0  0  0
  -15.2727   -5.5959   12.7897 C   0  0  0  0  0  0  0  0  0  0  0  0
  -13.7906   -5.2604   12.9281 N   0  0  0  0  0  0  0  0  0  0  0  0
  -12.9052   -6.4099   11.7163 N   0  0  0  0  0  0  0  0  0  0  0  0
   -9.9379  -12.6173   11.7905 C   0  0  0  0  0  0  0  0  0  0  0  0
   -9.4515  -11.9298   12.9044 C   0  0  0  0  0  0  0  0  0  0  0  0
   -9.3395  -12.8525   13.9413 C   0  0  0  0  0  0  0  0  0  0  0  0
   -9.4293  -14.0897   13.5234 N   0  0  0  0  0  0  0  0  0  0  0  0
   -9.5088  -13.9755   12.1707 N   0  0  0  0  0  0  0  0  0  0  0  0
   -9.1346  -15.2563   11.5779 C   0  0  0  0  0  0  0  0  0  0  0  0
   -8.3338  -16.2468   12.4825 C   0  0  0  0  0  0  0  0  0  0  0  0
   -7.9443  -17.3966   11.5505 C   0  0  0  0  0  0  0  0  0  0  0  0
   -7.9381  -16.7956   10.1560 C   0  0  0  0  0  0  0  0  0  0  0  0
   -8.2243  -15.3077   10.3678 C   0  0  0  0  0  0  0  0  0  0  0  0
  -11.7979   -8.8208    9.9187 H   0  0  0  0  0  0  0  0  0  0  0  0
  -13.2000   -9.5208    9.1361 H   0  0  0  0  0  0  0  0  0  0  0  0
  -14.2637   -5.8946   10.4607 H   0  0  0  0  0  0  0  0  0  0  0  0
  -15.7438   -4.6277   12.9480 H   0  0  0  0  0  0  0  0  0  0  0  0
  -12.1858   -6.0151   11.1027 H   0  0  0  0  0  0  0  0  0  0  0  0
   -9.4339  -10.8526   13.0193 H   0  0  0  0  0  0  0  0  0  0  0  0
   -9.3167  -12.6613   15.0052 H   0  0  0  0  0  0  0  0  0  0  0  0
  -10.0403  -15.8324   11.4785 H   0  0  0  0  0  0  0  0  0  0  0  0
   -8.9292  -16.5965   13.3290 H   0  0  0  0  0  0  0  0  0  0  0  0
   -7.4304  -15.7677   12.8829 H   0  0  0  0  0  0  0  0  0  0  0  0
   -6.9597  -17.7965   11.8111 H   0  0  0  0  0  0  0  0  0  0  0  0
   -8.6645  -18.2176   11.6006 H   0  0  0  0  0  0  0  0  0  0  0  0
   -6.9798  -16.9469    9.6488 H   0  0  0  0  0  0  0  0  0  0  0  0
   -8.7095  -17.2696    9.5404 H   0  0  0  0  0  0  0  0  0  0  0  0
   -7.2776  -14.8054   10.5822 H   0  0  0  0  0  0  0  0  0  0  0  0
   -8.6511  -14.8541    9.4817 H   0  0  0  0  0  0  0  0  0  0  0  0
  1  2  2  0
  2  3  1  0
  3  4  1  0
  4  5  1  0
  5  6  2  0
  6  7  1  0
  7  8  2  0
  8  9  1  0
  2 10  1  0
 10 11  2  0
 11 12  1  0
 12 13  2  0
 13 14  1  0
 14 15  1  0
 15 16  1  0
 16 17  1  0
 17 18  1  0
 18 19  1  0
  9  5  1  0
 14 10  1  0
 19 15  1  0
  4 20  1  0
  4 21  1  0
  6 22  1  0
  7 23  1  0
  9 24  1  0
 11 25  1  0
 12 26  1  0
 15 27  1  0
 16 28  1  0
 16 29  1  0
 17 30  1  0
 17 31  1  0
 18 32  1  0
 18 33  1  0
 19 34  1  0
 19 35  1  0
M  END
>  <Energy>  (678) 
756.79844151020086

>  <compound_id>  (678) 
13497

>  <target_id>  (678) 
1

>  <reference_id>  (678) 
112

>  <inspiration_ids>  (678) 
[127, 112]

>  <energy_score>  (678) 
733.0374005418741

>  <distance_score>  (678) 
10.756653158628271

>  <path>  (678) 
/opt/xchem-fragalysis-2/maxwin/BulkDock/SCRATCH/511016/C13497-P112/C13497-P112.minimised.mol

>  <scratch_subdir>  (678) 
/opt/xchem-fragalysis-2/maxwin/BulkDock/SCRATCH/511016/C13497-P112

>  <fragmenstein_runtime>  (678) 
10.251830101013184

>  <fragmenstein_outcome>  (678) 
too moved

>  <fragmenstein_mode>  (678) 
expansion

>  <fragmenstein_error>  (678) 


$$$$
C13498-P112
     RDKit          2D

  0  0  0  0  0  0  0  0  0  0999 V2000
M  END
>  <compound_id>  (679) 
13498

>  <target_id>  (679) 
1

>  <reference_id>  (679) 
112

>  <inspiration_ids>  (679) 
[127, 112]

>  <energy_score>  (679) 
nan

>  <distance_score>  (679) 
nan

>  <path>  (679) 
/opt/xchem-fragalysis-2/maxwin/BulkDock/SCRATCH/511016/C13498-P112/C13498-P112.minimised.mol

>  <scratch_subdir>  (679) 
/opt/xchem-fragalysis-2/maxwin/BulkDock/SCRATCH/511016/C13498-P112

>  <fragmenstein_runtime>  (679) 
0.45539164543151855

>  <fragmenstein_outcome>  (679) 
too distant

>  <fragmenstein_mode>  (679) 
expansion

>  <fragmenstein_error>  (679) 
DistanceError: hit1

$$$$
C13499-P112
     RDKit          2D

  0  0  0  0  0  0  0  0  0  0999 V2000
M  END
>  <compound_id>  (680) 
13499

>  <target_id>  (680) 
1

>  <reference_id>  (680) 
112

>  <inspiration_ids>  (680) 
[127, 112]

>  <energy_score>  (680) 
nan

>  <distance_score>  (680) 
nan

>  <path>  (680) 
/opt/xchem-fragalysis-2/maxwin/BulkDock/SCRATCH/511016/C13499-P112/C13499-P112.minimised.mol

>  <scratch_subdir>  (680) 
/opt/xchem-fragalysis-2/maxwin/BulkDock/SCRATCH/511016/C13499-P112

>  <fragmenstein_runtime>  (680) 
0.44161295890808105

>  <fragmenstein_outcome>  (680) 
too distant

>  <fragmenstein_mode>  (680) 
expansion

>  <fragmenstein_error>  (680) 
DistanceError: hit1

$$$$
C13500-P112
     RDKit          2D

  0  0  0  0  0  0  0  0  0  0999 V2000
M  END
>  <compound_id>  (681) 
13500

>  <target_id>  (681) 
1

>  <reference_id>  (681) 
112

>  <inspiration_ids>  (681) 
[127, 112]

>  <energy_score>  (681) 
nan

>  <distance_score>  (681) 
nan

>  <path>  (681) 
/opt/xchem-fragalysis-2/maxwin/BulkDock/SCRATCH/511016/C13500-P112/C13500-P112.minimised.mol

>  <scratch_subdir>  (681) 
/opt/xchem-fragalysis-2/maxwin/BulkDock/SCRATCH/511016/C13500-P112

>  <fragmenstein_runtime>  (681) 
0.4987914562225342

>  <fragmenstein_outcome>  (681) 
too distant

>  <fragmenstein_mode>  (681) 
expansion

>  <fragmenstein_error>  (681) 
DistanceError: hit1

$$$$
C13501-P112
     RDKit          2D

  0  0  0  0  0  0  0  0  0  0999 V2000
M  END
>  <compound_id>  (682) 
13501

>  <target_id>  (682) 
1

>  <reference_id>  (682) 
112

>  <inspiration_ids>  (682) 
[127, 112]

>  <energy_score>  (682) 
nan

>  <distance_score>  (682) 
nan

>  <path>  (682) 
/opt/xchem-fragalysis-2/maxwin/BulkDock/SCRATCH/511016/C13501-P112/C13501-P112.minimised.mol

>  <scratch_subdir>  (682) 
/opt/xchem-fragalysis-2/maxwin/BulkDock/SCRATCH/511016/C13501-P112

>  <fragmenstein_runtime>  (682) 
0.46140408515930176

>  <fragmenstein_outcome>  (682) 
too distant

>  <fragmenstein_mode>  (682) 
expansion

>  <fragmenstein_error>  (682) 
DistanceError: hit1

$$$$
C13502-P112
     RDKit          2D

  0  0  0  0  0  0  0  0  0  0999 V2000
M  END
>  <compound_id>  (683) 
13502

>  <target_id>  (683) 
1

>  <reference_id>  (683) 
112

>  <inspiration_ids>  (683) 
[127, 112]

>  <energy_score>  (683) 
nan

>  <distance_score>  (683) 
nan

>  <path>  (683) 
/opt/xchem-fragalysis-2/maxwin/BulkDock/SCRATCH/511016/C13502-P112/C13502-P112.minimised.mol

>  <scratch_subdir>  (683) 
/opt/xchem-fragalysis-2/maxwin/BulkDock/SCRATCH/511016/C13502-P112

>  <fragmenstein_runtime>  (683) 
0.43326854705810547

>  <fragmenstein_outcome>  (683) 
too distant

>  <fragmenstein_mode>  (683) 
expansion

>  <fragmenstein_error>  (683) 
DistanceError: hit1

$$$$
C13503-P112
     RDKit          2D

  0  0  0  0  0  0  0  0  0  0999 V2000
M  END
>  <compound_id>  (684) 
13503

>  <target_id>  (684) 
1

>  <reference_id>  (684) 
112

>  <inspiration_ids>  (684) 
[127, 112]

>  <energy_score>  (684) 
nan

>  <distance_score>  (684) 
nan

>  <path>  (684) 
/opt/xchem-fragalysis-2/maxwin/BulkDock/SCRATCH/511016/C13503-P112/C13503-P112.minimised.mol

>  <scratch_subdir>  (684) 
/opt/xchem-fragalysis-2/maxwin/BulkDock/SCRATCH/511016/C13503-P112

>  <fragmenstein_runtime>  (684) 
0.44652819633483887

>  <fragmenstein_outcome>  (684) 
too distant

>  <fragmenstein_mode>  (684) 
expansion

>  <fragmenstein_error>  (684) 
DistanceError: hit1

$$$$
C13504-P112
     RDKit          2D

  0  0  0  0  0  0  0  0  0  0999 V2000
M  END
>  <compound_id>  (685) 
13504

>  <target_id>  (685) 
1

>  <reference_id>  (685) 
112

>  <inspiration_ids>  (685) 
[127, 112]

>  <energy_score>  (685) 
nan

>  <distance_score>  (685) 
nan

>  <path>  (685) 
/opt/xchem-fragalysis-2/maxwin/BulkDock/SCRATCH/511016/C13504-P112/C13504-P112.minimised.mol

>  <scratch_subdir>  (685) 
/opt/xchem-fragalysis-2/maxwin/BulkDock/SCRATCH/511016/C13504-P112

>  <fragmenstein_runtime>  (685) 
0.4486973285675049

>  <fragmenstein_outcome>  (685) 
too distant

>  <fragmenstein_mode>  (685) 
expansion

>  <fragmenstein_error>  (685) 
DistanceError: hit1

$$$$
C13505-P112
     RDKit          2D

  0  0  0  0  0  0  0  0  0  0999 V2000
M  END
>  <compound_id>  (686) 
13505

>  <target_id>  (686) 
1

>  <reference_id>  (686) 
112

>  <inspiration_ids>  (686) 
[127, 112]

>  <energy_score>  (686) 
nan

>  <distance_score>  (686) 
nan

>  <path>  (686) 
/opt/xchem-fragalysis-2/maxwin/BulkDock/SCRATCH/511016/C13505-P112/C13505-P112.minimised.mol

>  <scratch_subdir>  (686) 
/opt/xchem-fragalysis-2/maxwin/BulkDock/SCRATCH/511016/C13505-P112

>  <fragmenstein_runtime>  (686) 
2.6540563106536865

>  <fragmenstein_outcome>  (686) 
too distant

>  <fragmenstein_mode>  (686) 
expansion

>  <fragmenstein_error>  (686) 
DistanceError: hit1

$$$$
C13506-P112
     RDKit          2D

  0  0  0  0  0  0  0  0  0  0999 V2000
M  END
>  <compound_id>  (687) 
13506

>  <target_id>  (687) 
1

>  <reference_id>  (687) 
112

>  <inspiration_ids>  (687) 
[127, 112]

>  <energy_score>  (687) 
nan

>  <distance_score>  (687) 
nan

>  <path>  (687) 
/opt/xchem-fragalysis-2/maxwin/BulkDock/SCRATCH/511016/C13506-P112/C13506-P112.minimised.mol

>  <scratch_subdir>  (687) 
/opt/xchem-fragalysis-2/maxwin/BulkDock/SCRATCH/511016/C13506-P112

>  <fragmenstein_runtime>  (687) 
0.6053118705749512

>  <fragmenstein_outcome>  (687) 
too distant

>  <fragmenstein_mode>  (687) 
expansion

>  <fragmenstein_error>  (687) 
DistanceError: hit1

$$$$
C13507-P112
     RDKit          2D

  0  0  0  0  0  0  0  0  0  0999 V2000
M  END
>  <compound_id>  (688) 
13507

>  <target_id>  (688) 
1

>  <reference_id>  (688) 
112

>  <inspiration_ids>  (688) 
[127, 112]

>  <energy_score>  (688) 
nan

>  <distance_score>  (688) 
nan

>  <path>  (688) 
/opt/xchem-fragalysis-2/maxwin/BulkDock/SCRATCH/511016/C13507-P112/C13507-P112.minimised.mol

>  <scratch_subdir>  (688) 
/opt/xchem-fragalysis-2/maxwin/BulkDock/SCRATCH/511016/C13507-P112

>  <fragmenstein_runtime>  (688) 
0.6335742473602295

>  <fragmenstein_outcome>  (688) 
too distant

>  <fragmenstein_mode>  (688) 
expansion

>  <fragmenstein_error>  (688) 
DistanceError: hit1

$$$$
C13508-P127
     RDKit          3D

 33 35  0  0  0  0  0  0  0  0999 V2000
   -9.8351  -13.0289   11.2358 C   0  0  0  0  0  0  0  0  0  0  0  0
   -9.0031  -13.7715   10.3914 C   0  0  0  0  0  0  0  0  0  0  0  0
   -8.0453  -14.3105   11.2226 C   0  0  0  0  0  0  0  0  0  0  0  0
   -6.8734  -15.2031   10.9569 C   0  0  0  0  0  0  0  0  0  0  0  0
   -6.6498  -16.5030   12.2210 S   0  0  0  0  0  0  0  0  0  0  0  0
   -7.1217  -18.0115   11.2789 C   0  0  0  0  0  0  0  0  0  0  0  0
   -8.6203  -18.1912   11.2201 C   0  0  0  0  0  0  0  0  0  0  0  0
   -9.4281  -17.2880   10.5471 C   0  0  0  0  0  0  0  0  0  0  0  0
   -9.8932  -18.0107    9.4542 C   0  0  0  0  0  0  0  0  0  0  0  0
   -9.6917  -19.3102    9.6176 N   0  0  0  0  0  0  0  0  0  0  0  0
   -9.2794  -19.4427   11.0074 N   0  0  0  0  0  0  0  0  0  0  0  0
   -9.9381  -20.8183   12.1464 C   0  0  0  0  0  0  0  0  0  0  0  0
   -9.1463  -21.7662   13.1329 C   0  0  0  0  0  0  0  0  0  0  0  0
   -9.5358  -23.0082   12.3248 C   0  0  0  0  0  0  0  0  0  0  0  0
  -10.6186  -22.1956   11.6698 C   0  0  0  0  0  0  0  0  0  0  0  0
   -8.4011  -13.9046   12.4740 N   0  0  0  0  0  0  0  0  0  0  0  0
   -9.4416  -13.0621   12.5034 N   0  0  0  0  0  0  0  0  0  0  0  0
  -10.7003  -12.4547   10.9665 H   0  0  0  0  0  0  0  0  0  0  0  0
   -9.0889  -13.9073    9.3215 H   0  0  0  0  0  0  0  0  0  0  0  0
   -6.9394  -15.6406    9.9558 H   0  0  0  0  0  0  0  0  0  0  0  0
   -5.9619  -14.5969   10.9737 H   0  0  0  0  0  0  0  0  0  0  0  0
   -6.7235  -17.9038   10.2637 H   0  0  0  0  0  0  0  0  0  0  0  0
   -6.5758  -18.8526   11.7091 H   0  0  0  0  0  0  0  0  0  0  0  0
   -9.4092  -16.2218   10.5718 H   0  0  0  0  0  0  0  0  0  0  0  0
  -10.3695  -17.6440    8.5558 H   0  0  0  0  0  0  0  0  0  0  0  0
  -10.6824  -20.2793   12.7489 H   0  0  0  0  0  0  0  0  0  0  0  0
   -9.6114  -21.8444   14.1181 H   0  0  0  0  0  0  0  0  0  0  0  0
   -8.0856  -21.6242   13.3189 H   0  0  0  0  0  0  0  0  0  0  0  0
   -9.8916  -23.8576   12.9173 H   0  0  0  0  0  0  0  0  0  0  0  0
   -8.7783  -23.3823   11.6333 H   0  0  0  0  0  0  0  0  0  0  0  0
  -11.5514  -22.4485   12.1835 H   0  0  0  0  0  0  0  0  0  0  0  0
  -10.8553  -22.4359   10.6357 H   0  0  0  0  0  0  0  0  0  0  0  0
   -7.9905  -14.2279   13.3424 H   0  0  0  0  0  0  0  0  0  0  0  0
  1  2  1  0
  2  3  2  0
  3  4  1  0
  4  5  1  0
  5  6  1  0
  6  7  1  0
  7  8  2  0
  8  9  1  0
  9 10  2  0
 10 11  1  0
 11 12  1  0
 12 13  1  0
 13 14  1  0
 14 15  1  0
  3 16  1  0
 16 17  1  0
 17  1  2  0
 11  7  1  0
 15 12  1  0
  1 18  1  0
  2 19  1  0
  4 20  1  0
  4 21  1  0
  6 22  1  0
  6 23  1  0
  8 24  1  0
  9 25  1  0
 12 26  1  0
 13 27  1  0
 13 28  1  0
 14 29  1  0
 14 30  1  0
 15 31  1  0
 15 32  1  0
 16 33  1  0
M  END
>  <Energy>  (689) 
131.1643458151255

>  <compound_id>  (689) 
13508

>  <target_id>  (689) 
1

>  <reference_id>  (689) 
127

>  <inspiration_ids>  (689) 
[127, 112]

>  <energy_score>  (689) 
87.37928380774983

>  <distance_score>  (689) 
10.30848087349944

>  <path>  (689) 
/opt/xchem-fragalysis-2/maxwin/BulkDock/SCRATCH/511016/C13508-P127/C13508-P127.minimised.mol

>  <scratch_subdir>  (689) 
/opt/xchem-fragalysis-2/maxwin/BulkDock/SCRATCH/511016/C13508-P127

>  <fragmenstein_runtime>  (689) 
10.078897476196289

>  <fragmenstein_outcome>  (689) 
too moved

>  <fragmenstein_mode>  (689) 
expansion

>  <fragmenstein_error>  (689) 


$$$$
C13508-P112
     RDKit          3D

 33 35  0  0  0  0  0  0  0  0999 V2000
  -13.7350   -9.3399    8.9161 C   0  0  0  0  0  0  0  0  0  0  0  0
  -12.5415   -9.7116    9.5503 C   0  0  0  0  0  0  0  0  0  0  0  0
  -12.4757  -11.1163    9.8181 C   0  0  0  0  0  0  0  0  0  0  0  0
  -10.8069  -12.2727   10.2851 C   0  0  0  0  0  0  0  0  0  0  0  0
   -9.8984  -14.0550   11.4819 S   0  0  0  0  0  0  0  0  0  0  0  0
   -9.5071  -16.1827   10.6644 C   0  0  0  0  0  0  0  0  0  0  0  0
   -8.8766  -17.6507   11.6237 C   0  0  0  0  0  0  0  0  0  0  0  0
   -7.5216  -17.5327   11.9443 C   0  0  0  0  0  0  0  0  0  0  0  0
   -6.8811  -18.5666   11.2298 C   0  0  0  0  0  0  0  0  0  0  0  0
   -7.7005  -19.4071   10.6081 N   0  0  0  0  0  0  0  0  0  0  0  0
   -8.8860  -19.3360   11.2869 N   0  0  0  0  0  0  0  0  0  0  0  0
   -9.0674  -21.0392   12.1557 C   0  0  0  0  0  0  0  0  0  0  0  0
   -9.9934  -22.4104   11.6324 C   0  0  0  0  0  0  0  0  0  0  0  0
  -10.6473  -22.5825   12.9333 C   0  0  0  0  0  0  0  0  0  0  0  0
  -10.0760  -21.2612   13.3792 C   0  0  0  0  0  0  0  0  0  0  0  0
  -13.9724  -11.2145    9.7956 N   0  0  0  0  0  0  0  0  0  0  0  0
  -14.6521  -10.2576    9.1226 N   0  0  0  0  0  0  0  0  0  0  0  0
  -13.9920   -8.4592    8.3458 H   0  0  0  0  0  0  0  0  0  0  0  0
  -11.5626   -9.3113    9.7198 H   0  0  0  0  0  0  0  0  0  0  0  0
  -10.3042  -12.4852    9.3646 H   0  0  0  0  0  0  0  0  0  0  0  0
  -10.3074  -11.7941   11.0928 H   0  0  0  0  0  0  0  0  0  0  0  0
  -10.3161  -16.5938   10.0567 H   0  0  0  0  0  0  0  0  0  0  0  0
   -8.6573  -15.9510   10.0095 H   0  0  0  0  0  0  0  0  0  0  0  0
   -7.0314  -16.6315   12.2895 H   0  0  0  0  0  0  0  0  0  0  0  0
   -5.8166  -18.6643   11.0536 H   0  0  0  0  0  0  0  0  0  0  0  0
   -8.0249  -21.3300   12.3734 H   0  0  0  0  0  0  0  0  0  0  0  0
   -9.6695  -23.4661   11.5797 H   0  0  0  0  0  0  0  0  0  0  0  0
  -10.6295  -22.3282   10.7689 H   0  0  0  0  0  0  0  0  0  0  0  0
  -10.2577  -23.4253   13.5239 H   0  0  0  0  0  0  0  0  0  0  0  0
  -11.7182  -22.7595   12.8184 H   0  0  0  0  0  0  0  0  0  0  0  0
  -10.7327  -20.4166   13.5362 H   0  0  0  0  0  0  0  0  0  0  0  0
   -9.6011  -21.5074   14.3429 H   0  0  0  0  0  0  0  0  0  0  0  0
  -14.5296  -11.9113   10.2705 H   0  0  0  0  0  0  0  0  0  0  0  0
  1  2  1  0
  2  3  2  0
  3  4  1  0
  4  5  1  0
  5  6  1  0
  6  7  1  0
  7  8  2  0
  8  9  1  0
  9 10  2  0
 10 11  1  0
 11 12  1  0
 12 13  1  0
 13 14  1  0
 14 15  1  0
  3 16  1  0
 16 17  1  0
 17  1  2  0
 11  7  1  0
 15 12  1  0
  1 18  1  0
  2 19  1  0
  4 20  1  0
  4 21  1  0
  6 22  1  0
  6 23  1  0
  8 24  1  0
  9 25  1  0
 12 26  1  0
 13 27  1  0
 13 28  1  0
 14 29  1  0
 14 30  1  0
 15 31  1  0
 15 32  1  0
 16 33  1  0
M  END
>  <Energy>  (690) 
524.3451919268432

>  <compound_id>  (690) 
13508

>  <target_id>  (690) 
1

>  <reference_id>  (690) 
112

>  <inspiration_ids>  (690) 
[127, 112]

>  <energy_score>  (690) 
480.5601299194651

>  <distance_score>  (690) 
8.590094485058014

>  <path>  (690) 
/opt/xchem-fragalysis-2/maxwin/BulkDock/SCRATCH/511016/C13508-P112/C13508-P112.minimised.mol

>  <scratch_subdir>  (690) 
/opt/xchem-fragalysis-2/maxwin/BulkDock/SCRATCH/511016/C13508-P112

>  <fragmenstein_runtime>  (690) 
6.620675802230835

>  <fragmenstein_outcome>  (690) 
too moved

>  <fragmenstein_mode>  (690) 
expansion

>  <fragmenstein_error>  (690) 


$$$$
C13509-P112
     RDKit          2D

  0  0  0  0  0  0  0  0  0  0999 V2000
M  END
>  <compound_id>  (691) 
13509

>  <target_id>  (691) 
1

>  <reference_id>  (691) 
112

>  <inspiration_ids>  (691) 
[127, 112]

>  <energy_score>  (691) 
nan

>  <distance_score>  (691) 
nan

>  <path>  (691) 
/opt/xchem-fragalysis-2/maxwin/BulkDock/SCRATCH/511016/C13509-P112/C13509-P112.minimised.mol

>  <scratch_subdir>  (691) 
/opt/xchem-fragalysis-2/maxwin/BulkDock/SCRATCH/511016/C13509-P112

>  <fragmenstein_runtime>  (691) 
0.5566034317016602

>  <fragmenstein_outcome>  (691) 
too distant

>  <fragmenstein_mode>  (691) 
expansion

>  <fragmenstein_error>  (691) 
DistanceError: hit1

$$$$
C13510-P112
     RDKit          2D

  0  0  0  0  0  0  0  0  0  0999 V2000
M  END
>  <compound_id>  (692) 
13510

>  <target_id>  (692) 
1

>  <reference_id>  (692) 
112

>  <inspiration_ids>  (692) 
[127, 112]

>  <energy_score>  (692) 
nan

>  <distance_score>  (692) 
nan

>  <path>  (692) 
/opt/xchem-fragalysis-2/maxwin/BulkDock/SCRATCH/511016/C13510-P112/C13510-P112.minimised.mol

>  <scratch_subdir>  (692) 
/opt/xchem-fragalysis-2/maxwin/BulkDock/SCRATCH/511016/C13510-P112

>  <fragmenstein_runtime>  (692) 
0.9982311725616455

>  <fragmenstein_outcome>  (692) 
too distant

>  <fragmenstein_mode>  (692) 
expansion

>  <fragmenstein_error>  (692) 
DistanceError: hit1

$$$$
C13511-P112
     RDKit          2D

  0  0  0  0  0  0  0  0  0  0999 V2000
M  END
>  <compound_id>  (693) 
13511

>  <target_id>  (693) 
1

>  <reference_id>  (693) 
112

>  <inspiration_ids>  (693) 
[127, 112]

>  <energy_score>  (693) 
nan

>  <distance_score>  (693) 
nan

>  <path>  (693) 
/opt/xchem-fragalysis-2/maxwin/BulkDock/SCRATCH/511016/C13511-P112/C13511-P112.minimised.mol

>  <scratch_subdir>  (693) 
/opt/xchem-fragalysis-2/maxwin/BulkDock/SCRATCH/511016/C13511-P112

>  <fragmenstein_runtime>  (693) 
0.9748642444610596

>  <fragmenstein_outcome>  (693) 
too distant

>  <fragmenstein_mode>  (693) 
expansion

>  <fragmenstein_error>  (693) 
DistanceError: hit1

$$$$
C13512-P112
     RDKit          2D

  0  0  0  0  0  0  0  0  0  0999 V2000
M  END
>  <compound_id>  (694) 
13512

>  <target_id>  (694) 
1

>  <reference_id>  (694) 
112

>  <inspiration_ids>  (694) 
[127, 112]

>  <energy_score>  (694) 
nan

>  <distance_score>  (694) 
nan

>  <path>  (694) 
/opt/xchem-fragalysis-2/maxwin/BulkDock/SCRATCH/511016/C13512-P112/C13512-P112.minimised.mol

>  <scratch_subdir>  (694) 
/opt/xchem-fragalysis-2/maxwin/BulkDock/SCRATCH/511016/C13512-P112

>  <fragmenstein_runtime>  (694) 
0.5837845802307129

>  <fragmenstein_outcome>  (694) 
too distant

>  <fragmenstein_mode>  (694) 
expansion

>  <fragmenstein_error>  (694) 
DistanceError: hit1

$$$$
C13513-P112
     RDKit          2D

  0  0  0  0  0  0  0  0  0  0999 V2000
M  END
>  <compound_id>  (695) 
13513

>  <target_id>  (695) 
1

>  <reference_id>  (695) 
112

>  <inspiration_ids>  (695) 
[127, 112]

>  <energy_score>  (695) 
nan

>  <distance_score>  (695) 
nan

>  <path>  (695) 
/opt/xchem-fragalysis-2/maxwin/BulkDock/SCRATCH/511016/C13513-P112/C13513-P112.minimised.mol

>  <scratch_subdir>  (695) 
/opt/xchem-fragalysis-2/maxwin/BulkDock/SCRATCH/511016/C13513-P112

>  <fragmenstein_runtime>  (695) 
0.6155979633331299

>  <fragmenstein_outcome>  (695) 
too distant

>  <fragmenstein_mode>  (695) 
expansion

>  <fragmenstein_error>  (695) 
DistanceError: hit1

$$$$
C13514-P112
     RDKit          2D

  0  0  0  0  0  0  0  0  0  0999 V2000
M  END
>  <compound_id>  (696) 
13514

>  <target_id>  (696) 
1

>  <reference_id>  (696) 
112

>  <inspiration_ids>  (696) 
[127, 112]

>  <energy_score>  (696) 
nan

>  <distance_score>  (696) 
nan

>  <path>  (696) 
/opt/xchem-fragalysis-2/maxwin/BulkDock/SCRATCH/511016/C13514-P112/C13514-P112.minimised.mol

>  <scratch_subdir>  (696) 
/opt/xchem-fragalysis-2/maxwin/BulkDock/SCRATCH/511016/C13514-P112

>  <fragmenstein_runtime>  (696) 
0.6340420246124268

>  <fragmenstein_outcome>  (696) 
too distant

>  <fragmenstein_mode>  (696) 
expansion

>  <fragmenstein_error>  (696) 
DistanceError: hit1

$$$$
C13515-P112
     RDKit          2D

  0  0  0  0  0  0  0  0  0  0999 V2000
M  END
>  <compound_id>  (697) 
13515

>  <target_id>  (697) 
1

>  <reference_id>  (697) 
112

>  <inspiration_ids>  (697) 
[127, 112]

>  <energy_score>  (697) 
nan

>  <distance_score>  (697) 
nan

>  <path>  (697) 
/opt/xchem-fragalysis-2/maxwin/BulkDock/SCRATCH/511016/C13515-P112/C13515-P112.minimised.mol

>  <scratch_subdir>  (697) 
/opt/xchem-fragalysis-2/maxwin/BulkDock/SCRATCH/511016/C13515-P112

>  <fragmenstein_runtime>  (697) 
0.5875904560089111

>  <fragmenstein_outcome>  (697) 
too distant

>  <fragmenstein_mode>  (697) 
expansion

>  <fragmenstein_error>  (697) 
DistanceError: hit1

$$$$
C13516-P112
     RDKit          2D

  0  0  0  0  0  0  0  0  0  0999 V2000
M  END
>  <compound_id>  (698) 
13516

>  <target_id>  (698) 
1

>  <reference_id>  (698) 
112

>  <inspiration_ids>  (698) 
[127, 112]

>  <energy_score>  (698) 
nan

>  <distance_score>  (698) 
nan

>  <path>  (698) 
/opt/xchem-fragalysis-2/maxwin/BulkDock/SCRATCH/511016/C13516-P112/C13516-P112.minimised.mol

>  <scratch_subdir>  (698) 
/opt/xchem-fragalysis-2/maxwin/BulkDock/SCRATCH/511016/C13516-P112

>  <fragmenstein_runtime>  (698) 
0.5181810855865479

>  <fragmenstein_outcome>  (698) 
too distant

>  <fragmenstein_mode>  (698) 
expansion

>  <fragmenstein_error>  (698) 
DistanceError: hit1

$$$$
C13517-P112
     RDKit          2D

  0  0  0  0  0  0  0  0  0  0999 V2000
M  END
>  <compound_id>  (699) 
13517

>  <target_id>  (699) 
1

>  <reference_id>  (699) 
112

>  <inspiration_ids>  (699) 
[127, 112]

>  <energy_score>  (699) 
nan

>  <distance_score>  (699) 
nan

>  <path>  (699) 
/opt/xchem-fragalysis-2/maxwin/BulkDock/SCRATCH/511016/C13517-P112/C13517-P112.minimised.mol

>  <scratch_subdir>  (699) 
/opt/xchem-fragalysis-2/maxwin/BulkDock/SCRATCH/511016/C13517-P112

>  <fragmenstein_runtime>  (699) 
0.6269400119781494

>  <fragmenstein_outcome>  (699) 
too distant

>  <fragmenstein_mode>  (699) 
expansion

>  <fragmenstein_error>  (699) 
DistanceError: hit1

$$$$
C13518-P112
     RDKit          2D

  0  0  0  0  0  0  0  0  0  0999 V2000
M  END
>  <compound_id>  (700) 
13518

>  <target_id>  (700) 
1

>  <reference_id>  (700) 
112

>  <inspiration_ids>  (700) 
[127, 112]

>  <energy_score>  (700) 
nan

>  <distance_score>  (700) 
nan

>  <path>  (700) 
/opt/xchem-fragalysis-2/maxwin/BulkDock/SCRATCH/511016/C13518-P112/C13518-P112.minimised.mol

>  <scratch_subdir>  (700) 
/opt/xchem-fragalysis-2/maxwin/BulkDock/SCRATCH/511016/C13518-P112

>  <fragmenstein_runtime>  (700) 
0.5487320423126221

>  <fragmenstein_outcome>  (700) 
too distant

>  <fragmenstein_mode>  (700) 
expansion

>  <fragmenstein_error>  (700) 
DistanceError: hit1

$$$$
C13519-P112
     RDKit          2D

  0  0  0  0  0  0  0  0  0  0999 V2000
M  END
>  <compound_id>  (701) 
13519

>  <target_id>  (701) 
1

>  <reference_id>  (701) 
112

>  <inspiration_ids>  (701) 
[127, 112]

>  <energy_score>  (701) 
nan

>  <distance_score>  (701) 
nan

>  <path>  (701) 
/opt/xchem-fragalysis-2/maxwin/BulkDock/SCRATCH/511016/C13519-P112/C13519-P112.minimised.mol

>  <scratch_subdir>  (701) 
/opt/xchem-fragalysis-2/maxwin/BulkDock/SCRATCH/511016/C13519-P112

>  <fragmenstein_runtime>  (701) 
0.4911034107208252

>  <fragmenstein_outcome>  (701) 
too distant

>  <fragmenstein_mode>  (701) 
expansion

>  <fragmenstein_error>  (701) 
DistanceError: hit1

$$$$
C13520-P112
     RDKit          2D

  0  0  0  0  0  0  0  0  0  0999 V2000
M  END
>  <compound_id>  (702) 
13520

>  <target_id>  (702) 
1

>  <reference_id>  (702) 
112

>  <inspiration_ids>  (702) 
[127, 112]

>  <energy_score>  (702) 
nan

>  <distance_score>  (702) 
nan

>  <path>  (702) 
/opt/xchem-fragalysis-2/maxwin/BulkDock/SCRATCH/511016/C13520-P112/C13520-P112.minimised.mol

>  <scratch_subdir>  (702) 
/opt/xchem-fragalysis-2/maxwin/BulkDock/SCRATCH/511016/C13520-P112

>  <fragmenstein_runtime>  (702) 
0.4809119701385498

>  <fragmenstein_outcome>  (702) 
too distant

>  <fragmenstein_mode>  (702) 
expansion

>  <fragmenstein_error>  (702) 
DistanceError: hit1

$$$$
C13521-P112
     RDKit          2D

  0  0  0  0  0  0  0  0  0  0999 V2000
M  END
>  <compound_id>  (703) 
13521

>  <target_id>  (703) 
1

>  <reference_id>  (703) 
112

>  <inspiration_ids>  (703) 
[127, 112]

>  <energy_score>  (703) 
nan

>  <distance_score>  (703) 
nan

>  <path>  (703) 
/opt/xchem-fragalysis-2/maxwin/BulkDock/SCRATCH/511016/C13521-P112/C13521-P112.minimised.mol

>  <scratch_subdir>  (703) 
/opt/xchem-fragalysis-2/maxwin/BulkDock/SCRATCH/511016/C13521-P112

>  <fragmenstein_runtime>  (703) 
0.47354960441589355

>  <fragmenstein_outcome>  (703) 
too distant

>  <fragmenstein_mode>  (703) 
expansion

>  <fragmenstein_error>  (703) 
DistanceError: hit1

$$$$
C13522-P112
     RDKit          2D

  0  0  0  0  0  0  0  0  0  0999 V2000
M  END
>  <compound_id>  (704) 
13522

>  <target_id>  (704) 
1

>  <reference_id>  (704) 
112

>  <inspiration_ids>  (704) 
[127, 112]

>  <energy_score>  (704) 
nan

>  <distance_score>  (704) 
nan

>  <path>  (704) 
/opt/xchem-fragalysis-2/maxwin/BulkDock/SCRATCH/511016/C13522-P112/C13522-P112.minimised.mol

>  <scratch_subdir>  (704) 
/opt/xchem-fragalysis-2/maxwin/BulkDock/SCRATCH/511016/C13522-P112

>  <fragmenstein_runtime>  (704) 
0.41997718811035156

>  <fragmenstein_outcome>  (704) 
too distant

>  <fragmenstein_mode>  (704) 
expansion

>  <fragmenstein_error>  (704) 
DistanceError: hit1

$$$$
C13523-P112
     RDKit          2D

  0  0  0  0  0  0  0  0  0  0999 V2000
M  END
>  <compound_id>  (705) 
13523

>  <target_id>  (705) 
1

>  <reference_id>  (705) 
112

>  <inspiration_ids>  (705) 
[127, 112]

>  <energy_score>  (705) 
nan

>  <distance_score>  (705) 
nan

>  <path>  (705) 
/opt/xchem-fragalysis-2/maxwin/BulkDock/SCRATCH/511016/C13523-P112/C13523-P112.minimised.mol

>  <scratch_subdir>  (705) 
/opt/xchem-fragalysis-2/maxwin/BulkDock/SCRATCH/511016/C13523-P112

>  <fragmenstein_runtime>  (705) 
0.3358938694000244

>  <fragmenstein_outcome>  (705) 
too distant

>  <fragmenstein_mode>  (705) 
expansion

>  <fragmenstein_error>  (705) 
DistanceError: hit0

$$$$
C13524-P112
     RDKit          2D

  0  0  0  0  0  0  0  0  0  0999 V2000
M  END
>  <compound_id>  (706) 
13524

>  <target_id>  (706) 
1

>  <reference_id>  (706) 
112

>  <inspiration_ids>  (706) 
[127, 112]

>  <energy_score>  (706) 
nan

>  <distance_score>  (706) 
nan

>  <path>  (706) 
/opt/xchem-fragalysis-2/maxwin/BulkDock/SCRATCH/511016/C13524-P112/C13524-P112.minimised.mol

>  <scratch_subdir>  (706) 
/opt/xchem-fragalysis-2/maxwin/BulkDock/SCRATCH/511016/C13524-P112

>  <fragmenstein_runtime>  (706) 
0.8628730773925781

>  <fragmenstein_outcome>  (706) 
too distant

>  <fragmenstein_mode>  (706) 
expansion

>  <fragmenstein_error>  (706) 
DistanceError: hit1

$$$$
C13525-P112
     RDKit          2D

  0  0  0  0  0  0  0  0  0  0999 V2000
M  END
>  <compound_id>  (707) 
13525

>  <target_id>  (707) 
1

>  <reference_id>  (707) 
112

>  <inspiration_ids>  (707) 
[127, 112]

>  <energy_score>  (707) 
nan

>  <distance_score>  (707) 
nan

>  <path>  (707) 
/opt/xchem-fragalysis-2/maxwin/BulkDock/SCRATCH/511016/C13525-P112/C13525-P112.minimised.mol

>  <scratch_subdir>  (707) 
/opt/xchem-fragalysis-2/maxwin/BulkDock/SCRATCH/511016/C13525-P112

>  <fragmenstein_runtime>  (707) 
0.5407047271728516

>  <fragmenstein_outcome>  (707) 
too distant

>  <fragmenstein_mode>  (707) 
expansion

>  <fragmenstein_error>  (707) 
DistanceError: hit1

$$$$
C13526-P112
     RDKit          2D

  0  0  0  0  0  0  0  0  0  0999 V2000
M  END
>  <compound_id>  (708) 
13526

>  <target_id>  (708) 
1

>  <reference_id>  (708) 
112

>  <inspiration_ids>  (708) 
[127, 112]

>  <energy_score>  (708) 
nan

>  <distance_score>  (708) 
nan

>  <path>  (708) 
/opt/xchem-fragalysis-2/maxwin/BulkDock/SCRATCH/511016/C13526-P112/C13526-P112.minimised.mol

>  <scratch_subdir>  (708) 
/opt/xchem-fragalysis-2/maxwin/BulkDock/SCRATCH/511016/C13526-P112

>  <fragmenstein_runtime>  (708) 
0.5800013542175293

>  <fragmenstein_outcome>  (708) 
too distant

>  <fragmenstein_mode>  (708) 
expansion

>  <fragmenstein_error>  (708) 
DistanceError: hit1

$$$$
C13527-P112
     RDKit          2D

  0  0  0  0  0  0  0  0  0  0999 V2000
M  END
>  <compound_id>  (709) 
13527

>  <target_id>  (709) 
1

>  <reference_id>  (709) 
112

>  <inspiration_ids>  (709) 
[127, 112]

>  <energy_score>  (709) 
nan

>  <distance_score>  (709) 
nan

>  <path>  (709) 
/opt/xchem-fragalysis-2/maxwin/BulkDock/SCRATCH/511016/C13527-P112/C13527-P112.minimised.mol

>  <scratch_subdir>  (709) 
/opt/xchem-fragalysis-2/maxwin/BulkDock/SCRATCH/511016/C13527-P112

>  <fragmenstein_runtime>  (709) 
0.5925495624542236

>  <fragmenstein_outcome>  (709) 
too distant

>  <fragmenstein_mode>  (709) 
expansion

>  <fragmenstein_error>  (709) 
DistanceError: hit1

$$$$
C13528-P112
     RDKit          2D

  0  0  0  0  0  0  0  0  0  0999 V2000
M  END
>  <compound_id>  (710) 
13528

>  <target_id>  (710) 
1

>  <reference_id>  (710) 
112

>  <inspiration_ids>  (710) 
[127, 112]

>  <energy_score>  (710) 
nan

>  <distance_score>  (710) 
nan

>  <path>  (710) 
/opt/xchem-fragalysis-2/maxwin/BulkDock/SCRATCH/511016/C13528-P112/C13528-P112.minimised.mol

>  <scratch_subdir>  (710) 
/opt/xchem-fragalysis-2/maxwin/BulkDock/SCRATCH/511016/C13528-P112

>  <fragmenstein_runtime>  (710) 
0.78128981590271

>  <fragmenstein_outcome>  (710) 
too distant

>  <fragmenstein_mode>  (710) 
expansion

>  <fragmenstein_error>  (710) 
DistanceError: hit1

$$$$
C13529-P112
     RDKit          2D

  0  0  0  0  0  0  0  0  0  0999 V2000
M  END
>  <compound_id>  (711) 
13529

>  <target_id>  (711) 
1

>  <reference_id>  (711) 
112

>  <inspiration_ids>  (711) 
[127, 112]

>  <energy_score>  (711) 
nan

>  <distance_score>  (711) 
nan

>  <path>  (711) 
/opt/xchem-fragalysis-2/maxwin/BulkDock/SCRATCH/511016/C13529-P112/C13529-P112.minimised.mol

>  <scratch_subdir>  (711) 
/opt/xchem-fragalysis-2/maxwin/BulkDock/SCRATCH/511016/C13529-P112

>  <fragmenstein_runtime>  (711) 
0.46646881103515625

>  <fragmenstein_outcome>  (711) 
too distant

>  <fragmenstein_mode>  (711) 
expansion

>  <fragmenstein_error>  (711) 
DistanceError: hit1

$$$$
C13530-P112
     RDKit          2D

  0  0  0  0  0  0  0  0  0  0999 V2000
M  END
>  <compound_id>  (712) 
13530

>  <target_id>  (712) 
1

>  <reference_id>  (712) 
112

>  <inspiration_ids>  (712) 
[127, 112]

>  <energy_score>  (712) 
nan

>  <distance_score>  (712) 
nan

>  <path>  (712) 
/opt/xchem-fragalysis-2/maxwin/BulkDock/SCRATCH/511016/C13530-P112/C13530-P112.minimised.mol

>  <scratch_subdir>  (712) 
/opt/xchem-fragalysis-2/maxwin/BulkDock/SCRATCH/511016/C13530-P112

>  <fragmenstein_runtime>  (712) 
0.642122745513916

>  <fragmenstein_outcome>  (712) 
too distant

>  <fragmenstein_mode>  (712) 
expansion

>  <fragmenstein_error>  (712) 
DistanceError: hit1

$$$$
C13531-P112
     RDKit          2D

  0  0  0  0  0  0  0  0  0  0999 V2000
M  END
>  <compound_id>  (713) 
13531

>  <target_id>  (713) 
1

>  <reference_id>  (713) 
112

>  <inspiration_ids>  (713) 
[127, 112]

>  <energy_score>  (713) 
nan

>  <distance_score>  (713) 
nan

>  <path>  (713) 
/opt/xchem-fragalysis-2/maxwin/BulkDock/SCRATCH/511016/C13531-P112/C13531-P112.minimised.mol

>  <scratch_subdir>  (713) 
/opt/xchem-fragalysis-2/maxwin/BulkDock/SCRATCH/511016/C13531-P112

>  <fragmenstein_runtime>  (713) 
0.6326189041137695

>  <fragmenstein_outcome>  (713) 
too distant

>  <fragmenstein_mode>  (713) 
expansion

>  <fragmenstein_error>  (713) 
DistanceError: hit1

$$$$
C13532-P112
     RDKit          2D

  0  0  0  0  0  0  0  0  0  0999 V2000
M  END
>  <compound_id>  (714) 
13532

>  <target_id>  (714) 
1

>  <reference_id>  (714) 
112

>  <inspiration_ids>  (714) 
[127, 112]

>  <energy_score>  (714) 
nan

>  <distance_score>  (714) 
nan

>  <path>  (714) 
/opt/xchem-fragalysis-2/maxwin/BulkDock/SCRATCH/511016/C13532-P112/C13532-P112.minimised.mol

>  <scratch_subdir>  (714) 
/opt/xchem-fragalysis-2/maxwin/BulkDock/SCRATCH/511016/C13532-P112

>  <fragmenstein_runtime>  (714) 
0.6120791435241699

>  <fragmenstein_outcome>  (714) 
too distant

>  <fragmenstein_mode>  (714) 
expansion

>  <fragmenstein_error>  (714) 
DistanceError: hit1

$$$$
C13533-P112
     RDKit          2D

  0  0  0  0  0  0  0  0  0  0999 V2000
M  END
>  <compound_id>  (715) 
13533

>  <target_id>  (715) 
1

>  <reference_id>  (715) 
112

>  <inspiration_ids>  (715) 
[127, 112]

>  <energy_score>  (715) 
nan

>  <distance_score>  (715) 
nan

>  <path>  (715) 
/opt/xchem-fragalysis-2/maxwin/BulkDock/SCRATCH/511016/C13533-P112/C13533-P112.minimised.mol

>  <scratch_subdir>  (715) 
/opt/xchem-fragalysis-2/maxwin/BulkDock/SCRATCH/511016/C13533-P112

>  <fragmenstein_runtime>  (715) 
0.6026866436004639

>  <fragmenstein_outcome>  (715) 
too distant

>  <fragmenstein_mode>  (715) 
expansion

>  <fragmenstein_error>  (715) 
DistanceError: hit1

$$$$
C13534-P112
     RDKit          2D

  0  0  0  0  0  0  0  0  0  0999 V2000
M  END
>  <compound_id>  (716) 
13534

>  <target_id>  (716) 
1

>  <reference_id>  (716) 
112

>  <inspiration_ids>  (716) 
[127, 112]

>  <energy_score>  (716) 
nan

>  <distance_score>  (716) 
nan

>  <path>  (716) 
/opt/xchem-fragalysis-2/maxwin/BulkDock/SCRATCH/511016/C13534-P112/C13534-P112.minimised.mol

>  <scratch_subdir>  (716) 
/opt/xchem-fragalysis-2/maxwin/BulkDock/SCRATCH/511016/C13534-P112

>  <fragmenstein_runtime>  (716) 
0.5474708080291748

>  <fragmenstein_outcome>  (716) 
too distant

>  <fragmenstein_mode>  (716) 
expansion

>  <fragmenstein_error>  (716) 
DistanceError: hit1

$$$$
C13535-P112
     RDKit          2D

  0  0  0  0  0  0  0  0  0  0999 V2000
M  END
>  <compound_id>  (717) 
13535

>  <target_id>  (717) 
1

>  <reference_id>  (717) 
112

>  <inspiration_ids>  (717) 
[127, 112]

>  <energy_score>  (717) 
nan

>  <distance_score>  (717) 
nan

>  <path>  (717) 
/opt/xchem-fragalysis-2/maxwin/BulkDock/SCRATCH/511016/C13535-P112/C13535-P112.minimised.mol

>  <scratch_subdir>  (717) 
/opt/xchem-fragalysis-2/maxwin/BulkDock/SCRATCH/511016/C13535-P112

>  <fragmenstein_runtime>  (717) 
0.3910102844238281

>  <fragmenstein_outcome>  (717) 
too distant

>  <fragmenstein_mode>  (717) 
expansion

>  <fragmenstein_error>  (717) 
DistanceError: hit1

$$$$
C13536-P112
     RDKit          2D

  0  0  0  0  0  0  0  0  0  0999 V2000
M  END
>  <compound_id>  (718) 
13536

>  <target_id>  (718) 
1

>  <reference_id>  (718) 
112

>  <inspiration_ids>  (718) 
[127, 112]

>  <energy_score>  (718) 
nan

>  <distance_score>  (718) 
nan

>  <path>  (718) 
/opt/xchem-fragalysis-2/maxwin/BulkDock/SCRATCH/511016/C13536-P112/C13536-P112.minimised.mol

>  <scratch_subdir>  (718) 
/opt/xchem-fragalysis-2/maxwin/BulkDock/SCRATCH/511016/C13536-P112

>  <fragmenstein_runtime>  (718) 
0.441669225692749

>  <fragmenstein_outcome>  (718) 
too distant

>  <fragmenstein_mode>  (718) 
expansion

>  <fragmenstein_error>  (718) 
DistanceError: hit1

$$$$
C13537-P112
     RDKit          2D

  0  0  0  0  0  0  0  0  0  0999 V2000
M  END
>  <compound_id>  (719) 
13537

>  <target_id>  (719) 
1

>  <reference_id>  (719) 
112

>  <inspiration_ids>  (719) 
[127, 112]

>  <energy_score>  (719) 
nan

>  <distance_score>  (719) 
nan

>  <path>  (719) 
/opt/xchem-fragalysis-2/maxwin/BulkDock/SCRATCH/511016/C13537-P112/C13537-P112.minimised.mol

>  <scratch_subdir>  (719) 
/opt/xchem-fragalysis-2/maxwin/BulkDock/SCRATCH/511016/C13537-P112

>  <fragmenstein_runtime>  (719) 
0.4992179870605469

>  <fragmenstein_outcome>  (719) 
too distant

>  <fragmenstein_mode>  (719) 
expansion

>  <fragmenstein_error>  (719) 
DistanceError: hit1

$$$$
C13539-P112
     RDKit          2D

  0  0  0  0  0  0  0  0  0  0999 V2000
M  END
>  <compound_id>  (720) 
13539

>  <target_id>  (720) 
1

>  <reference_id>  (720) 
112

>  <inspiration_ids>  (720) 
[127, 112]

>  <energy_score>  (720) 
nan

>  <distance_score>  (720) 
nan

>  <path>  (720) 
/opt/xchem-fragalysis-2/maxwin/BulkDock/SCRATCH/511016/C13539-P112/C13539-P112.minimised.mol

>  <scratch_subdir>  (720) 
/opt/xchem-fragalysis-2/maxwin/BulkDock/SCRATCH/511016/C13539-P112

>  <fragmenstein_runtime>  (720) 
5.248079299926758

>  <fragmenstein_outcome>  (720) 
too distant

>  <fragmenstein_mode>  (720) 
expansion

>  <fragmenstein_error>  (720) 
DistanceError: hit1

$$$$
C13540-P112
     RDKit          2D

  0  0  0  0  0  0  0  0  0  0999 V2000
M  END
>  <compound_id>  (721) 
13540

>  <target_id>  (721) 
1

>  <reference_id>  (721) 
112

>  <inspiration_ids>  (721) 
[127, 112]

>  <energy_score>  (721) 
nan

>  <distance_score>  (721) 
nan

>  <path>  (721) 
/opt/xchem-fragalysis-2/maxwin/BulkDock/SCRATCH/511016/C13540-P112/C13540-P112.minimised.mol

>  <scratch_subdir>  (721) 
/opt/xchem-fragalysis-2/maxwin/BulkDock/SCRATCH/511016/C13540-P112

>  <fragmenstein_runtime>  (721) 
11.46968412399292

>  <fragmenstein_outcome>  (721) 
too distant

>  <fragmenstein_mode>  (721) 
expansion

>  <fragmenstein_error>  (721) 
DistanceError: hit1

$$$$
C25775-P66
     RDKit          3D

 41 44  0  0  0  0  0  0  0  0999 V2000
    3.2770  -17.8303   25.9172 O   0  0  0  0  0  0  0  0  0  0  0  0
    3.2390  -17.9529   24.6955 C   0  0  0  0  0  0  0  0  0  0  0  0
    2.4224  -19.5865   24.2705 C   0  0  0  0  0  0  0  0  0  0  0  0
    3.0674  -20.6592   23.6458 C   0  0  0  0  0  0  0  0  0  0  0  0
    2.3771  -21.8853   23.2856 C   0  0  0  0  0  0  0  0  0  0  0  0
    0.9875  -22.0766   23.5174 C   0  0  0  0  0  0  0  0  0  0  0  0
    0.1260  -23.1288   23.2741 N   0  0  0  0  0  0  0  0  0  0  0  0
   -1.1405  -22.8375   23.7288 C   0  0  0  0  0  0  0  0  0  0  0  0
   -1.1064  -21.5694   24.2622 C   0  0  0  0  0  0  0  0  0  0  0  0
    0.2269  -21.0869   24.1061 C   0  0  0  0  0  0  0  0  0  0  0  0
    0.9450  -19.9192   24.4758 C   0  0  0  0  0  0  0  0  0  0  0  0
    4.2087  -16.5480   23.8857 N   0  0  0  0  0  0  0  0  0  0  0  0
    3.0575  -15.0709   23.5708 C   0  0  0  0  0  0  0  0  0  0  0  0
    2.8821  -13.2893   23.8969 C   0  0  0  0  0  0  0  0  0  0  0  0
    3.2329  -12.0186   22.8125 S   0  0  0  0  0  0  0  0  0  0  0  0
    4.2032  -12.7394   21.1428 C   0  0  0  0  0  0  0  0  0  0  0  0
    5.7824  -12.5050   20.3506 C   0  0  0  0  0  0  0  0  0  0  0  0
    6.8239  -11.6146   20.6820 C   0  0  0  0  0  0  0  0  0  0  0  0
    7.7508  -11.3739   19.6214 C   0  0  0  0  0  0  0  0  0  0  0  0
    7.4052  -12.0588   18.4833 C   0  0  0  0  0  0  0  0  0  0  0  0
    5.9744  -12.9814   18.6857 S   0  0  0  0  0  0  0  0  0  0  0  0
    3.4650  -14.0103   21.6908 C   0  0  0  0  0  0  0  0  0  0  0  0
    3.8821  -15.1744   23.3971 C   0  0  0  0  0  0  0  0  0  0  0  0
    4.1159  -20.5750   23.3872 H   0  0  0  0  0  0  0  0  0  0  0  0
    2.9533  -22.6718   22.8021 H   0  0  0  0  0  0  0  0  0  0  0  0
    0.4001  -23.9968   22.8361 H   0  0  0  0  0  0  0  0  0  0  0  0
   -1.9418  -23.5579   23.6349 H   0  0  0  0  0  0  0  0  0  0  0  0
   -1.9375  -21.0506   24.7191 H   0  0  0  0  0  0  0  0  0  0  0  0
    0.3964  -19.2189   25.0768 H   0  0  0  0  0  0  0  0  0  0  0  0
    3.4671  -14.6452   24.9411 H   0  0  0  0  0  0  0  0  0  0  0  0
    1.9474  -15.1918   23.5225 H   0  0  0  0  0  0  0  0  0  0  0  0
    1.9654  -13.0508   24.4160 H   0  0  0  0  0  0  0  0  0  0  0  0
    3.6305  -13.1113   24.5909 H   0  0  0  0  0  0  0  0  0  0  0  0
    4.5948  -11.7876   21.5522 H   0  0  0  0  0  0  0  0  0  0  0  0
    6.8709  -11.0833   21.6261 H   0  0  0  0  0  0  0  0  0  0  0  0
    8.6045  -10.7107   19.6846 H   0  0  0  0  0  0  0  0  0  0  0  0
    7.9104  -12.0533   17.5267 H   0  0  0  0  0  0  0  0  0  0  0  0
    4.5585  -13.9077   21.2901 H   0  0  0  0  0  0  0  0  0  0  0  0
    2.7234  -14.4498   20.9743 H   0  0  0  0  0  0  0  0  0  0  0  0
    4.6802  -14.7496   24.2816 H   0  0  0  0  0  0  0  0  0  0  0  0
    4.9672  -15.2354   23.3661 H   0  0  0  0  0  0  0  0  0  0  0  0
  1  2  2  0
  2  3  1  0
  3  4  2  0
  4  5  1  0
  5  6  2  0
  6  7  1  0
  7  8  1  0
  8  9  2  0
  9 10  1  0
 10 11  2  0
  2 12  1  0
 12 13  1  0
 13 14  1  0
 14 15  1  0
 15 16  1  0
 16 17  1  0
 17 18  2  0
 18 19  1  0
 19 20  2  0
 20 21  1  0
 16 22  1  0
 22 23  1  0
 11  3  1  0
 23 12  1  0
 10  6  1  0
 21 17  1  0
  4 24  1  0
  5 25  1  0
  7 26  1  0
  8 27  1  0
  9 28  1  0
 11 29  1  0
 13 30  1  0
 13 31  1  0
 14 32  1  0
 14 33  1  0
 16 34  1  0
 18 35  1  0
 19 36  1  0
 20 37  1  0
 22 38  1  0
 22 39  1  0
 23 40  1  0
 23 41  1  0
M  END
>  <Energy>  (722) 
1286.7560836161085

>  <compound_id>  (722) 
25775

>  <target_id>  (722) 
1

>  <reference_id>  (722) 
66

>  <inspiration_ids>  (722) 
[66, 39]

>  <energy_score>  (722) 
1165.1881739993846

>  <distance_score>  (722) 
14.871269357848092

>  <path>  (722) 
/opt/xchem-fragalysis-2/maxwin/BulkDock/SCRATCH/511016/C25775-P66/C25775-P66.minimised.mol

>  <scratch_subdir>  (722) 
/opt/xchem-fragalysis-2/maxwin/BulkDock/SCRATCH/511016/C25775-P66

>  <fragmenstein_runtime>  (722) 
25.969483852386475

>  <fragmenstein_outcome>  (722) 
too moved

>  <fragmenstein_mode>  (722) 
expansion

>  <fragmenstein_error>  (722) 


$$$$
C25775-P39
     RDKit          3D

 41 44  0  0  0  0  0  0  0  0999 V2000
   -2.4089  -16.9038   25.1856 O   0  0  0  0  0  0  0  0  0  0  0  0
   -2.5182  -15.7829   24.6512 C   0  0  0  0  0  0  0  0  0  0  0  0
   -4.0365  -15.4677   24.4085 C   0  0  0  0  0  0  0  0  0  0  0  0
   -4.7145  -14.2773   24.6592 C   0  0  0  0  0  0  0  0  0  0  0  0
   -6.1147  -14.1956   24.9153 C   0  0  0  0  0  0  0  0  0  0  0  0
   -6.7226  -15.3561   25.3968 C   0  0  0  0  0  0  0  0  0  0  0  0
   -7.8925  -15.5402   26.1049 N   0  0  0  0  0  0  0  0  0  0  0  0
   -7.8005  -16.7078   26.8207 C   0  0  0  0  0  0  0  0  0  0  0  0
   -6.6802  -17.3802   26.3750 C   0  0  0  0  0  0  0  0  0  0  0  0
   -6.0453  -16.5606   25.4055 C   0  0  0  0  0  0  0  0  0  0  0  0
   -4.8271  -16.6453   24.6988 C   0  0  0  0  0  0  0  0  0  0  0  0
   -1.2218  -14.6054   24.3257 N   0  0  0  0  0  0  0  0  0  0  0  0
   -1.0125  -13.7102   25.3403 C   0  0  0  0  0  0  0  0  0  0  0  0
    0.9499  -13.2882   25.7679 C   0  0  0  0  0  0  0  0  0  0  0  0
    2.1871  -12.3256   23.9523 S   0  0  0  0  0  0  0  0  0  0  0  0
    3.1893  -13.2886   22.8242 C   0  0  0  0  0  0  0  0  0  0  0  0
    4.2929  -12.8532   21.1251 C   0  0  0  0  0  0  0  0  0  0  0  0
    4.4759  -13.1216   19.6064 C   0  0  0  0  0  0  0  0  0  0  0  0
    5.6084  -12.8027   18.7423 C   0  0  0  0  0  0  0  0  0  0  0  0
    6.5888  -12.1160   19.3505 C   0  0  0  0  0  0  0  0  0  0  0  0
    6.1882  -11.6569   20.9077 S   0  0  0  0  0  0  0  0  0  0  0  0
    1.7659  -14.5511   23.2813 C   0  0  0  0  0  0  0  0  0  0  0  0
   -0.1506  -14.3623   22.8826 C   0  0  0  0  0  0  0  0  0  0  0  0
   -4.1744  -13.3446   24.7952 H   0  0  0  0  0  0  0  0  0  0  0  0
   -6.5815  -13.2226   25.0526 H   0  0  0  0  0  0  0  0  0  0  0  0
   -8.5657  -14.8078   26.2826 H   0  0  0  0  0  0  0  0  0  0  0  0
   -8.5327  -16.9552   27.5778 H   0  0  0  0  0  0  0  0  0  0  0  0
   -6.3165  -18.3282   26.7504 H   0  0  0  0  0  0  0  0  0  0  0  0
   -4.3708  -17.6325   24.7136 H   0  0  0  0  0  0  0  0  0  0  0  0
   -1.7624  -14.3522   25.9148 H   0  0  0  0  0  0  0  0  0  0  0  0
   -1.7434  -12.8787   25.4139 H   0  0  0  0  0  0  0  0  0  0  0  0
    1.5262  -13.9451   26.3887 H   0  0  0  0  0  0  0  0  0  0  0  0
    0.9182  -12.3716   26.3626 H   0  0  0  0  0  0  0  0  0  0  0  0
    3.6974  -13.7707   23.6553 H   0  0  0  0  0  0  0  0  0  0  0  0
    3.7759  -13.7177   19.0250 H   0  0  0  0  0  0  0  0  0  0  0  0
    5.6529  -13.1199   17.7076 H   0  0  0  0  0  0  0  0  0  0  0  0
    7.5194  -11.7830   18.9126 H   0  0  0  0  0  0  0  0  0  0  0  0
    1.1134  -14.1746   24.0522 H   0  0  0  0  0  0  0  0  0  0  0  0
    2.4413  -15.3603   23.4678 H   0  0  0  0  0  0  0  0  0  0  0  0
   -0.5823  -15.0500   22.1960 H   0  0  0  0  0  0  0  0  0  0  0  0
   -0.2155  -13.3199   22.7475 H   0  0  0  0  0  0  0  0  0  0  0  0
  1  2  2  0
  2  3  1  0
  3  4  2  0
  4  5  1  0
  5  6  2  0
  6  7  1  0
  7  8  1  0
  8  9  2  0
  9 10  1  0
 10 11  2  0
  2 12  1  0
 12 13  1  0
 13 14  1  0
 14 15  1  0
 15 16  1  0
 16 17  1  0
 17 18  2  0
 18 19  1  0
 19 20  2  0
 20 21  1  0
 16 22  1  0
 22 23  1  0
 11  3  1  0
 23 12  1  0
 10  6  1  0
 21 17  1  0
  4 24  1  0
  5 25  1  0
  7 26  1  0
  8 27  1  0
  9 28  1  0
 11 29  1  0
 13 30  1  0
 13 31  1  0
 14 32  1  0
 14 33  1  0
 16 34  1  0
 18 35  1  0
 19 36  1  0
 20 37  1  0
 22 38  1  0
 22 39  1  0
 23 40  1  0
 23 41  1  0
M  END
>  <Energy>  (723) 
754.30876242077966

>  <compound_id>  (723) 
25775

>  <target_id>  (723) 
1

>  <reference_id>  (723) 
39

>  <inspiration_ids>  (723) 
[66, 39]

>  <energy_score>  (723) 
632.7408528040648

>  <distance_score>  (723) 
13.877483706467219

>  <path>  (723) 
/opt/xchem-fragalysis-2/maxwin/BulkDock/SCRATCH/511016/C25775-P39/C25775-P39.minimised.mol

>  <scratch_subdir>  (723) 
/opt/xchem-fragalysis-2/maxwin/BulkDock/SCRATCH/511016/C25775-P39

>  <fragmenstein_runtime>  (723) 
18.885371685028076

>  <fragmenstein_outcome>  (723) 
too moved

>  <fragmenstein_mode>  (723) 
expansion

>  <fragmenstein_error>  (723) 


$$$$
C25777-P66
     RDKit          3D

 35 38  0  0  0  0  0  0  0  0999 V2000
   -6.3595  -20.4750   16.5792 C   0  0  0  0  0  0  0  0  0  0  0  0
   -6.4577  -19.0944   17.2045 C   0  0  0  0  0  0  0  0  0  0  0  0
   -5.2402  -18.7126   17.8950 N   0  0  0  0  0  0  0  0  0  0  0  0
   -4.3463  -17.9476   17.2311 N   0  0  0  0  0  0  0  0  0  0  0  0
   -3.2908  -17.9177   18.0573 C   0  0  0  0  0  0  0  0  0  0  0  0
   -1.9143  -17.0493   17.5918 C   0  0  0  0  0  0  0  0  0  0  0  0
   -0.7092  -16.9178   18.2614 C   0  0  0  0  0  0  0  0  0  0  0  0
    0.2568  -16.1281   17.5297 C   0  0  0  0  0  0  0  0  0  0  0  0
   -0.2578  -15.5857   16.3796 C   0  0  0  0  0  0  0  0  0  0  0  0
   -1.8529  -16.1365   16.1103 S   0  0  0  0  0  0  0  0  0  0  0  0
   -3.5444  -18.6286   19.2498 N   0  0  0  0  0  0  0  0  0  0  0  0
   -4.8070  -19.0723   19.1509 C   0  0  0  0  0  0  0  0  0  0  0  0
   -5.6862  -19.8269   20.1010 C   0  0  0  0  0  0  0  0  0  0  0  0
   -5.4199  -21.1536   20.4650 C   0  0  0  0  0  0  0  0  0  0  0  0
   -6.3737  -21.9546   21.1252 C   0  0  0  0  0  0  0  0  0  0  0  0
   -7.6336  -21.3960   21.3540 C   0  0  0  0  0  0  0  0  0  0  0  0
   -8.8058  -21.9710   21.7826 N   0  0  0  0  0  0  0  0  0  0  0  0
   -9.8198  -21.0486   21.7861 C   0  0  0  0  0  0  0  0  0  0  0  0
   -9.2813  -19.8428   21.4091 C   0  0  0  0  0  0  0  0  0  0  0  0
   -7.9142  -20.0597   21.0919 C   0  0  0  0  0  0  0  0  0  0  0  0
   -6.9064  -19.2548   20.5217 C   0  0  0  0  0  0  0  0  0  0  0  0
   -7.2825  -20.7141   16.0419 H   0  0  0  0  0  0  0  0  0  0  0  0
   -5.5274  -20.5274   15.8691 H   0  0  0  0  0  0  0  0  0  0  0  0
   -6.1992  -21.2473   17.3381 H   0  0  0  0  0  0  0  0  0  0  0  0
   -6.6444  -18.3452   16.4258 H   0  0  0  0  0  0  0  0  0  0  0  0
   -7.2966  -19.0382   17.9009 H   0  0  0  0  0  0  0  0  0  0  0  0
   -0.5130  -17.4007   19.2115 H   0  0  0  0  0  0  0  0  0  0  0  0
    1.2752  -15.9460   17.8346 H   0  0  0  0  0  0  0  0  0  0  0  0
    0.2326  -14.9397   15.6645 H   0  0  0  0  0  0  0  0  0  0  0  0
   -4.4693  -21.6034   20.1802 H   0  0  0  0  0  0  0  0  0  0  0  0
   -6.1662  -22.9965   21.3483 H   0  0  0  0  0  0  0  0  0  0  0  0
   -8.9435  -22.9637   21.9426 H   0  0  0  0  0  0  0  0  0  0  0  0
  -10.8267  -21.3344   22.0595 H   0  0  0  0  0  0  0  0  0  0  0  0
   -9.8322  -18.9200   21.2983 H   0  0  0  0  0  0  0  0  0  0  0  0
   -7.1307  -18.2169   20.2897 H   0  0  0  0  0  0  0  0  0  0  0  0
  1  2  1  0
  2  3  1  0
  3  4  1  0
  4  5  2  0
  5  6  1  0
  6  7  2  0
  7  8  1  0
  8  9  2  0
  9 10  1  0
  5 11  1  0
 11 12  2  0
 12 13  1  0
 13 14  2  0
 14 15  1  0
 15 16  2  0
 16 17  1  0
 17 18  1  0
 18 19  2  0
 19 20  1  0
 20 21  2  0
 12  3  1  0
 21 13  1  0
 10  6  1  0
 20 16  1  0
  1 22  1  0
  1 23  1  0
  1 24  1  0
  2 25  1  0
  2 26  1  0
  7 27  1  0
  8 28  1  0
  9 29  1  0
 14 30  1  0
 15 31  1  0
 17 32  1  0
 18 33  1  0
 19 34  1  0
 21 35  1  0
M  END
>  <Energy>  (724) 
54.593409972106201

>  <compound_id>  (724) 
25777

>  <target_id>  (724) 
1

>  <reference_id>  (724) 
66

>  <inspiration_ids>  (724) 
[66, 39]

>  <energy_score>  (724) 
-34.79482639248823

>  <distance_score>  (724) 
15.479922208236763

>  <path>  (724) 
/opt/xchem-fragalysis-2/maxwin/BulkDock/SCRATCH/511016/C25777-P66/C25777-P66.minimised.mol

>  <scratch_subdir>  (724) 
/opt/xchem-fragalysis-2/maxwin/BulkDock/SCRATCH/511016/C25777-P66

>  <fragmenstein_runtime>  (724) 
17.859918355941772

>  <fragmenstein_outcome>  (724) 
too moved

>  <fragmenstein_mode>  (724) 
expansion

>  <fragmenstein_error>  (724) 


$$$$
C25777-P39
     RDKit          3D

 35 38  0  0  0  0  0  0  0  0999 V2000
   -9.7600  -15.6745   24.8280 C   0  0  0  0  0  0  0  0  0  0  0  0
   -9.4641  -16.0232   26.2796 C   0  0  0  0  0  0  0  0  0  0  0  0
  -10.1674  -15.2068   27.2568 N   0  0  0  0  0  0  0  0  0  0  0  0
   -9.9224  -13.8900   27.1325 N   0  0  0  0  0  0  0  0  0  0  0  0
   -9.3401  -13.6401   28.3104 C   0  0  0  0  0  0  0  0  0  0  0  0
   -8.2408  -12.3685   28.3218 C   0  0  0  0  0  0  0  0  0  0  0  0
   -8.0254  -11.5564   27.2041 C   0  0  0  0  0  0  0  0  0  0  0  0
   -7.0952  -10.4922   27.4333 C   0  0  0  0  0  0  0  0  0  0  0  0
   -6.5182  -10.5893   28.6779 C   0  0  0  0  0  0  0  0  0  0  0  0
   -7.2127  -11.8735   29.5995 S   0  0  0  0  0  0  0  0  0  0  0  0
   -9.7271  -14.6261   29.2689 N   0  0  0  0  0  0  0  0  0  0  0  0
  -10.4550  -15.5502   28.5870 C   0  0  0  0  0  0  0  0  0  0  0  0
  -11.0159  -16.8830   29.0082 C   0  0  0  0  0  0  0  0  0  0  0  0
  -12.1069  -17.7106   29.0971 C   0  0  0  0  0  0  0  0  0  0  0  0
  -12.5836  -19.5551   29.1371 C   0  0  0  0  0  0  0  0  0  0  0  0
  -11.8457  -20.6728   29.4757 C   0  0  0  0  0  0  0  0  0  0  0  0
  -11.9935  -22.0038   29.6395 N   0  0  0  0  0  0  0  0  0  0  0  0
  -11.1180  -22.4926   28.7298 C   0  0  0  0  0  0  0  0  0  0  0  0
  -10.3556  -21.3735   28.4601 C   0  0  0  0  0  0  0  0  0  0  0  0
  -10.6102  -20.0884   29.4192 C   0  0  0  0  0  0  0  0  0  0  0  0
  -10.4309  -18.0255   29.1305 C   0  0  0  0  0  0  0  0  0  0  0  0
   -9.2542  -16.3801   24.1614 H   0  0  0  0  0  0  0  0  0  0  0  0
  -10.8319  -15.7080   24.6129 H   0  0  0  0  0  0  0  0  0  0  0  0
   -9.4029  -14.6694   24.5799 H   0  0  0  0  0  0  0  0  0  0  0  0
   -8.3909  -15.9094   26.4778 H   0  0  0  0  0  0  0  0  0  0  0  0
   -9.7141  -17.0472   26.4796 H   0  0  0  0  0  0  0  0  0  0  0  0
   -8.5769  -11.6882   26.2806 H   0  0  0  0  0  0  0  0  0  0  0  0
   -6.8711   -9.7113   26.7189 H   0  0  0  0  0  0  0  0  0  0  0  0
   -5.7706   -9.9502   29.1268 H   0  0  0  0  0  0  0  0  0  0  0  0
  -12.7138  -16.8687   29.5240 H   0  0  0  0  0  0  0  0  0  0  0  0
  -13.6254  -19.9488   29.2278 H   0  0  0  0  0  0  0  0  0  0  0  0
  -12.8237  -22.4972   29.9430 H   0  0  0  0  0  0  0  0  0  0  0  0
  -11.1639  -23.4890   28.3114 H   0  0  0  0  0  0  0  0  0  0  0  0
   -9.6719  -21.2961   27.6530 H   0  0  0  0  0  0  0  0  0  0  0  0
   -9.4009  -17.8106   28.5665 H   0  0  0  0  0  0  0  0  0  0  0  0
  1  2  1  0
  2  3  1  0
  3  4  1  0
  4  5  2  0
  5  6  1  0
  6  7  2  0
  7  8  1  0
  8  9  2  0
  9 10  1  0
  5 11  1  0
 11 12  2  0
 12 13  1  0
 13 14  2  0
 14 15  1  0
 15 16  2  0
 16 17  1  0
 17 18  1  0
 18 19  2  0
 19 20  1  0
 20 21  2  0
 12  3  1  0
 21 13  1  0
 10  6  1  0
 20 16  1  0
  1 22  1  0
  1 23  1  0
  1 24  1  0
  2 25  1  0
  2 26  1  0
  7 27  1  0
  8 28  1  0
  9 29  1  0
 14 30  1  0
 15 31  1  0
 17 32  1  0
 18 33  1  0
 19 34  1  0
 21 35  1  0
M  END
>  <Energy>  (725) 
467.71773070050648

>  <compound_id>  (725) 
25777

>  <target_id>  (725) 
1

>  <reference_id>  (725) 
39

>  <inspiration_ids>  (725) 
[66, 39]

>  <energy_score>  (725) 
378.3294943359122

>  <distance_score>  (725) 
16.282320221371887

>  <path>  (725) 
/opt/xchem-fragalysis-2/maxwin/BulkDock/SCRATCH/511016/C25777-P39/C25777-P39.minimised.mol

>  <scratch_subdir>  (725) 
/opt/xchem-fragalysis-2/maxwin/BulkDock/SCRATCH/511016/C25777-P39

>  <fragmenstein_runtime>  (725) 
20.15161681175232

>  <fragmenstein_outcome>  (725) 
too moved

>  <fragmenstein_mode>  (725) 
expansion

>  <fragmenstein_error>  (725) 


$$$$
C25779-P66
     RDKit          3D

 41 43  0  0  0  0  0  0  0  0999 V2000
  -10.4835  -20.4456   29.7147 C   0  0  0  0  0  0  0  0  0  0  0  0
   -9.2804  -19.5130   28.5021 O   0  0  0  0  0  0  0  0  0  0  0  0
   -7.8719  -18.8593   28.4214 C   0  0  0  0  0  0  0  0  0  0  0  0
   -7.0514  -19.9102   27.6348 C   0  0  0  0  0  0  0  0  0  0  0  0
   -5.4883  -19.5718   27.7827 N   0  0  0  0  0  0  0  0  0  0  0  0
   -5.1516  -18.2973   26.8415 C   0  0  0  0  0  0  0  0  0  0  0  0
   -4.1113  -17.1099   27.0997 C   0  0  0  0  0  0  0  0  0  0  0  0
   -3.1855  -16.8348   28.0921 C   0  0  0  0  0  0  0  0  0  0  0  0
   -2.6038  -15.5077   28.0240 C   0  0  0  0  0  0  0  0  0  0  0  0
   -3.0147  -14.7714   26.9307 C   0  0  0  0  0  0  0  0  0  0  0  0
   -2.6281  -13.3471   26.5826 C   0  0  0  0  0  0  0  0  0  0  0  0
   -4.0713  -15.7350   25.9581 S   0  0  0  0  0  0  0  0  0  0  0  0
   -8.1087  -21.5374   27.6130 C   0  0  0  0  0  0  0  0  0  0  0  0
   -9.9104  -21.5598   27.9554 C   0  0  0  0  0  0  0  0  0  0  0  0
  -11.0853  -22.3876   27.6363 C   0  0  0  0  0  0  0  0  0  0  0  0
  -10.6875  -23.6717   27.8098 C   0  0  0  0  0  0  0  0  0  0  0  0
  -11.4690  -24.7812   27.9489 N   0  0  0  0  0  0  0  0  0  0  0  0
  -10.7477  -25.7403   28.5785 C   0  0  0  0  0  0  0  0  0  0  0  0
   -9.4573  -25.2714   28.6800 C   0  0  0  0  0  0  0  0  0  0  0  0
   -9.3271  -23.9376   28.0848 C   0  0  0  0  0  0  0  0  0  0  0  0
   -7.9769  -22.8383   27.8306 C   0  0  0  0  0  0  0  0  0  0  0  0
  -10.5296  -20.1494   30.7776 H   0  0  0  0  0  0  0  0  0  0  0  0
  -11.5015  -20.5677   29.2850 H   0  0  0  0  0  0  0  0  0  0  0  0
  -10.2822  -21.4081   30.1205 H   0  0  0  0  0  0  0  0  0  0  0  0
   -8.0356  -17.9521   27.8211 H   0  0  0  0  0  0  0  0  0  0  0  0
   -7.3627  -18.4799   29.3156 H   0  0  0  0  0  0  0  0  0  0  0  0
   -6.9656  -19.5510   26.6287 H   0  0  0  0  0  0  0  0  0  0  0  0
   -4.9615  -20.3396   27.3616 H   0  0  0  0  0  0  0  0  0  0  0  0
   -4.8856  -18.7313   25.8689 H   0  0  0  0  0  0  0  0  0  0  0  0
   -6.0932  -17.7504   26.7081 H   0  0  0  0  0  0  0  0  0  0  0  0
   -2.9941  -17.5263   28.9058 H   0  0  0  0  0  0  0  0  0  0  0  0
   -1.9181  -15.1271   28.7723 H   0  0  0  0  0  0  0  0  0  0  0  0
   -2.8143  -12.7078   27.4533 H   0  0  0  0  0  0  0  0  0  0  0  0
   -1.5737  -13.2635   26.3402 H   0  0  0  0  0  0  0  0  0  0  0  0
   -3.2398  -12.9570   25.7665 H   0  0  0  0  0  0  0  0  0  0  0  0
   -9.8574  -22.1447   28.8210 H   0  0  0  0  0  0  0  0  0  0  0  0
  -12.0923  -22.0390   27.5839 H   0  0  0  0  0  0  0  0  0  0  0  0
  -12.4717  -24.7756   27.8112 H   0  0  0  0  0  0  0  0  0  0  0  0
  -11.2011  -26.6639   28.9062 H   0  0  0  0  0  0  0  0  0  0  0  0
   -8.6608  -25.8433   29.1136 H   0  0  0  0  0  0  0  0  0  0  0  0
   -6.9226  -23.1200   27.9214 H   0  0  0  0  0  0  0  0  0  0  0  0
  1  2  1  0
  2  3  1  0
  3  4  1  0
  4  5  1  0
  5  6  1  0
  6  7  1  0
  7  8  2  0
  8  9  1  0
  9 10  2  0
 10 11  1  0
 10 12  1  0
  4 13  1  0
 13 14  2  0
 14 15  1  0
 15 16  2  0
 16 17  1  0
 17 18  1  0
 18 19  2  0
 19 20  1  0
 20 21  2  0
 12  7  1  0
 21 13  1  0
 20 16  1  0
  1 22  1  0
  1 23  1  0
  1 24  1  0
  3 25  1  0
  3 26  1  0
  4 27  1  0
  5 28  1  0
  6 29  1  0
  6 30  1  0
  8 31  1  0
  9 32  1  0
 11 33  1  0
 11 34  1  0
 11 35  1  0
 14 36  1  0
 15 37  1  0
 17 38  1  0
 18 39  1  0
 19 40  1  0
 21 41  1  0
M  END
>  <Energy>  (726) 
592.36906486378712

>  <compound_id>  (726) 
25779

>  <target_id>  (726) 
1

>  <reference_id>  (726) 
66

>  <inspiration_ids>  (726) 
[66, 39]

>  <energy_score>  (726) 
496.0215212054962

>  <distance_score>  (726) 
16.131674343407923

>  <path>  (726) 
/opt/xchem-fragalysis-2/maxwin/BulkDock/SCRATCH/511016/C25779-P66/C25779-P66.minimised.mol

>  <scratch_subdir>  (726) 
/opt/xchem-fragalysis-2/maxwin/BulkDock/SCRATCH/511016/C25779-P66

>  <fragmenstein_runtime>  (726) 
23.04580330848694

>  <fragmenstein_outcome>  (726) 
too moved

>  <fragmenstein_mode>  (726) 
expansion

>  <fragmenstein_error>  (726) 


$$$$
C25779-P39
     RDKit          3D

 41 43  0  0  0  0  0  0  0  0999 V2000
  -11.0495  -21.2775   27.1083 C   0  0  0  0  0  0  0  0  0  0  0  0
   -9.6086  -20.5654   27.6874 O   0  0  0  0  0  0  0  0  0  0  0  0
   -9.0563  -18.7152   28.0332 C   0  0  0  0  0  0  0  0  0  0  0  0
  -10.4555  -18.0257   29.2138 C   0  0  0  0  0  0  0  0  0  0  0  0
   -9.4822  -16.6666   28.5643 N   0  0  0  0  0  0  0  0  0  0  0  0
   -7.9842  -16.2335   28.8544 C   0  0  0  0  0  0  0  0  0  0  0  0
   -7.0400  -15.3259   27.7609 C   0  0  0  0  0  0  0  0  0  0  0  0
   -7.2661  -14.7660   26.5032 C   0  0  0  0  0  0  0  0  0  0  0  0
   -6.1443  -14.0166   25.9338 C   0  0  0  0  0  0  0  0  0  0  0  0
   -5.0261  -13.9882   26.7434 C   0  0  0  0  0  0  0  0  0  0  0  0
   -3.6802  -13.3039   26.5004 C   0  0  0  0  0  0  0  0  0  0  0  0
   -5.3512  -14.9026   28.1861 S   0  0  0  0  0  0  0  0  0  0  0  0
  -10.6284  -20.1320   29.8729 C   0  0  0  0  0  0  0  0  0  0  0  0
  -10.7254  -20.5740   31.3989 C   0  0  0  0  0  0  0  0  0  0  0  0
  -11.4498  -21.6513   32.0600 C   0  0  0  0  0  0  0  0  0  0  0  0
  -11.9890  -22.6286   31.2630 C   0  0  0  0  0  0  0  0  0  0  0  0
  -12.4962  -23.8713   31.5307 N   0  0  0  0  0  0  0  0  0  0  0  0
  -12.3974  -24.6281   30.3874 C   0  0  0  0  0  0  0  0  0  0  0  0
  -12.1716  -23.7780   29.3365 C   0  0  0  0  0  0  0  0  0  0  0  0
  -11.9170  -22.4955   29.9029 C   0  0  0  0  0  0  0  0  0  0  0  0
  -11.2217  -21.3097   29.4167 C   0  0  0  0  0  0  0  0  0  0  0  0
  -10.9862  -22.3715   27.2395 H   0  0  0  0  0  0  0  0  0  0  0  0
  -11.3100  -21.0815   26.0788 H   0  0  0  0  0  0  0  0  0  0  0  0
  -11.9145  -20.9619   27.6445 H   0  0  0  0  0  0  0  0  0  0  0  0
   -8.0324  -18.8685   28.4317 H   0  0  0  0  0  0  0  0  0  0  0  0
   -9.0281  -18.0326   27.1559 H   0  0  0  0  0  0  0  0  0  0  0  0
  -11.4251  -17.6570   28.8261 H   0  0  0  0  0  0  0  0  0  0  0  0
  -10.0649  -15.8473   28.7527 H   0  0  0  0  0  0  0  0  0  0  0  0
   -8.0123  -15.5867   29.7409 H   0  0  0  0  0  0  0  0  0  0  0  0
   -7.3641  -17.1007   29.0933 H   0  0  0  0  0  0  0  0  0  0  0  0
   -8.2169  -14.8765   25.9949 H   0  0  0  0  0  0  0  0  0  0  0  0
   -6.1976  -13.5266   24.9694 H   0  0  0  0  0  0  0  0  0  0  0  0
   -3.3194  -12.8334   27.4201 H   0  0  0  0  0  0  0  0  0  0  0  0
   -2.9470  -14.0431   26.1663 H   0  0  0  0  0  0  0  0  0  0  0  0
   -3.7850  -12.5283   25.7367 H   0  0  0  0  0  0  0  0  0  0  0  0
  -10.2611  -19.9635   32.1821 H   0  0  0  0  0  0  0  0  0  0  0  0
  -11.5350  -21.7189   33.1342 H   0  0  0  0  0  0  0  0  0  0  0  0
  -12.6818  -24.2438   32.4531 H   0  0  0  0  0  0  0  0  0  0  0  0
  -12.5068  -25.6997   30.4329 H   0  0  0  0  0  0  0  0  0  0  0  0
  -12.0494  -24.0765   28.3046 H   0  0  0  0  0  0  0  0  0  0  0  0
  -10.4184  -21.8906   28.9402 H   0  0  0  0  0  0  0  0  0  0  0  0
  1  2  1  0
  2  3  1  0
  3  4  1  0
  4  5  1  0
  5  6  1  0
  6  7  1  0
  7  8  2  0
  8  9  1  0
  9 10  2  0
 10 11  1  0
 10 12  1  0
  4 13  1  0
 13 14  2  0
 14 15  1  0
 15 16  2  0
 16 17  1  0
 17 18  1  0
 18 19  2  0
 19 20  1  0
 20 21  2  0
 12  7  1  0
 21 13  1  0
 20 16  1  0
  1 22  1  0
  1 23  1  0
  1 24  1  0
  3 25  1  0
  3 26  1  0
  4 27  1  0
  5 28  1  0
  6 29  1  0
  6 30  1  0
  8 31  1  0
  9 32  1  0
 11 33  1  0
 11 34  1  0
 11 35  1  0
 14 36  1  0
 15 37  1  0
 17 38  1  0
 18 39  1  0
 19 40  1  0
 21 41  1  0
M  END
>  <Energy>  (727) 
680.51148829369231

>  <compound_id>  (727) 
25779

>  <target_id>  (727) 
1

>  <reference_id>  (727) 
39

>  <inspiration_ids>  (727) 
[66, 39]

>  <energy_score>  (727) 
584.1639446354052

>  <distance_score>  (727) 
16.70361814463159

>  <path>  (727) 
/opt/xchem-fragalysis-2/maxwin/BulkDock/SCRATCH/511016/C25779-P39/C25779-P39.minimised.mol

>  <scratch_subdir>  (727) 
/opt/xchem-fragalysis-2/maxwin/BulkDock/SCRATCH/511016/C25779-P39

>  <fragmenstein_runtime>  (727) 
27.550187826156616

>  <fragmenstein_outcome>  (727) 
too moved

>  <fragmenstein_mode>  (727) 
expansion

>  <fragmenstein_error>  (727) 


$$$$
C25781-P66
     RDKit          3D

 35 37  0  0  0  0  0  0  0  0999 V2000
    5.8125  -12.0432   16.9783 C   0  0  0  0  0  0  0  0  0  0  0  0
    4.5511  -12.7046   16.4752 C   0  0  0  0  0  0  0  0  0  0  0  0
    3.7482  -12.2916   15.4352 C   0  0  0  0  0  0  0  0  0  0  0  0
    2.6340  -13.1739   15.2293 C   0  0  0  0  0  0  0  0  0  0  0  0
    2.5492  -14.2415   16.1329 C   0  0  0  0  0  0  0  0  0  0  0  0
    1.5223  -15.4152   16.0539 C   0  0  0  0  0  0  0  0  0  0  0  0
    0.7551  -15.9864   17.1943 N   0  0  0  0  0  0  0  0  0  0  0  0
   -0.7647  -16.0329   17.4606 C   0  0  0  0  0  0  0  0  0  0  0  0
   -1.6491  -15.5505   16.8503 O   0  0  0  0  0  0  0  0  0  0  0  0
   -0.8155  -16.9790   18.6975 N   0  0  0  0  0  0  0  0  0  0  0  0
   -1.9449  -17.5964   19.3712 C   0  0  0  0  0  0  0  0  0  0  0  0
   -3.2733  -17.2400   19.1038 C   0  0  0  0  0  0  0  0  0  0  0  0
   -4.3905  -17.8376   19.7538 C   0  0  0  0  0  0  0  0  0  0  0  0
   -4.1598  -18.8421   20.7017 C   0  0  0  0  0  0  0  0  0  0  0  0
   -5.0365  -19.6057   21.4472 N   0  0  0  0  0  0  0  0  0  0  0  0
   -4.3412  -20.4752   22.2461 C   0  0  0  0  0  0  0  0  0  0  0  0
   -2.9974  -20.2586   22.0246 C   0  0  0  0  0  0  0  0  0  0  0  0
   -2.8636  -19.2404   21.0271 C   0  0  0  0  0  0  0  0  0  0  0  0
   -1.7587  -18.6048   20.3575 C   0  0  0  0  0  0  0  0  0  0  0  0
    3.9354  -14.1716   17.1637 S   0  0  0  0  0  0  0  0  0  0  0  0
    5.7477  -10.9565   16.8637 H   0  0  0  0  0  0  0  0  0  0  0  0
    5.9857  -12.2683   18.0352 H   0  0  0  0  0  0  0  0  0  0  0  0
    6.6716  -12.4013   16.4022 H   0  0  0  0  0  0  0  0  0  0  0  0
    3.9462  -11.4092   14.8386 H   0  0  0  0  0  0  0  0  0  0  0  0
    1.9067  -13.0316   14.4370 H   0  0  0  0  0  0  0  0  0  0  0  0
    0.7636  -15.1284   15.3151 H   0  0  0  0  0  0  0  0  0  0  0  0
    2.0649  -16.2687   15.6285 H   0  0  0  0  0  0  0  0  0  0  0  0
    1.2373  -16.4301   17.9481 H   0  0  0  0  0  0  0  0  0  0  0  0
    0.1140  -17.2764   18.9280 H   0  0  0  0  0  0  0  0  0  0  0  0
   -3.4771  -16.4713   18.3598 H   0  0  0  0  0  0  0  0  0  0  0  0
   -5.3971  -17.5254   19.4941 H   0  0  0  0  0  0  0  0  0  0  0  0
   -6.0431  -19.5467   21.3843 H   0  0  0  0  0  0  0  0  0  0  0  0
   -4.8534  -21.1728   22.8933 H   0  0  0  0  0  0  0  0  0  0  0  0
   -2.1822  -20.7812   22.5084 H   0  0  0  0  0  0  0  0  0  0  0  0
   -0.7543  -18.9088   20.6409 H   0  0  0  0  0  0  0  0  0  0  0  0
  1  2  1  0
  2  3  2  0
  3  4  1  0
  4  5  2  0
  5  6  1  0
  6  7  1  0
  7  8  1  0
  8  9  2  0
  8 10  1  0
 10 11  1  0
 11 12  2  0
 12 13  1  0
 13 14  2  0
 14 15  1  0
 15 16  1  0
 16 17  2  0
 17 18  1  0
 18 19  2  0
  5 20  1  0
 20  2  1  0
 19 11  1  0
 18 14  1  0
  1 21  1  0
  1 22  1  0
  1 23  1  0
  3 24  1  0
  4 25  1  0
  6 26  1  0
  6 27  1  0
  7 28  1  0
 10 29  1  0
 12 30  1  0
 13 31  1  0
 15 32  1  0
 16 33  1  0
 17 34  1  0
 19 35  1  0
M  END
>  <Energy>  (728) 
-19.465853252922543

>  <compound_id>  (728) 
25781

>  <target_id>  (728) 
1

>  <reference_id>  (728) 
66

>  <inspiration_ids>  (728) 
[66, 39]

>  <energy_score>  (728) 
-3.560626837373036

>  <distance_score>  (728) 
14.827704541850478

>  <path>  (728) 
/opt/xchem-fragalysis-2/maxwin/BulkDock/SCRATCH/511016/C25781-P66/C25781-P66.minimised.mol

>  <scratch_subdir>  (728) 
/opt/xchem-fragalysis-2/maxwin/BulkDock/SCRATCH/511016/C25781-P66

>  <fragmenstein_runtime>  (728) 
27.05660128593445

>  <fragmenstein_outcome>  (728) 
too moved

>  <fragmenstein_mode>  (728) 
expansion

>  <fragmenstein_error>  (728) 


$$$$
C25781-P39
     RDKit          3D

 35 37  0  0  0  0  0  0  0  0999 V2000
    0.6739   -5.8341   20.2618 C   0  0  0  0  0  0  0  0  0  0  0  0
   -0.1730   -6.5145   21.3116 C   0  0  0  0  0  0  0  0  0  0  0  0
   -0.2466   -6.2576   22.6640 C   0  0  0  0  0  0  0  0  0  0  0  0
   -1.2984   -6.9934   23.3238 C   0  0  0  0  0  0  0  0  0  0  0  0
   -2.0415   -7.8046   22.4763 C   0  0  0  0  0  0  0  0  0  0  0  0
   -3.4589   -8.4130   22.6300 C   0  0  0  0  0  0  0  0  0  0  0  0
   -3.9049   -9.4334   23.6336 N   0  0  0  0  0  0  0  0  0  0  0  0
   -5.2810  -10.1423   23.8146 C   0  0  0  0  0  0  0  0  0  0  0  0
   -6.2843   -9.9568   23.2376 O   0  0  0  0  0  0  0  0  0  0  0  0
   -4.9496  -11.2192   24.8760 N   0  0  0  0  0  0  0  0  0  0  0  0
   -5.7382  -12.3350   25.3706 C   0  0  0  0  0  0  0  0  0  0  0  0
   -7.1105  -12.4288   25.0968 C   0  0  0  0  0  0  0  0  0  0  0  0
   -7.9108  -13.5406   25.4698 C   0  0  0  0  0  0  0  0  0  0  0  0
   -7.2966  -14.6136   26.1220 C   0  0  0  0  0  0  0  0  0  0  0  0
   -7.8134  -15.8115   26.5732 N   0  0  0  0  0  0  0  0  0  0  0  0
   -6.8231  -16.5653   27.1447 C   0  0  0  0  0  0  0  0  0  0  0  0
   -5.6520  -15.8409   27.0653 C   0  0  0  0  0  0  0  0  0  0  0  0
   -5.9364  -14.5913   26.4274 C   0  0  0  0  0  0  0  0  0  0  0  0
   -5.1679  -13.4312   26.0631 C   0  0  0  0  0  0  0  0  0  0  0  0
   -1.2810   -7.7642   20.8955 S   0  0  0  0  0  0  0  0  0  0  0  0
    1.4176   -5.1744   20.7135 H   0  0  0  0  0  0  0  0  0  0  0  0
    1.1685   -6.5575   19.6108 H   0  0  0  0  0  0  0  0  0  0  0  0
    0.0296   -5.2091   19.6328 H   0  0  0  0  0  0  0  0  0  0  0  0
    0.3710   -5.5236   23.1686 H   0  0  0  0  0  0  0  0  0  0  0  0
   -1.5592   -6.8299   24.3625 H   0  0  0  0  0  0  0  0  0  0  0  0
   -3.7595   -8.8437   21.6662 H   0  0  0  0  0  0  0  0  0  0  0  0
   -4.1421   -7.5674   22.7854 H   0  0  0  0  0  0  0  0  0  0  0  0
   -3.2701   -9.7600   24.3348 H   0  0  0  0  0  0  0  0  0  0  0  0
   -3.9776  -11.1611   25.1155 H   0  0  0  0  0  0  0  0  0  0  0  0
   -7.6055  -11.6177   24.5627 H   0  0  0  0  0  0  0  0  0  0  0  0
   -8.9694  -13.5510   25.2284 H   0  0  0  0  0  0  0  0  0  0  0  0
   -8.7844  -16.0800   26.4994 H   0  0  0  0  0  0  0  0  0  0  0  0
   -7.0314  -17.5363   27.5739 H   0  0  0  0  0  0  0  0  0  0  0  0
   -4.6902  -16.1654   27.4411 H   0  0  0  0  0  0  0  0  0  0  0  0
   -4.1092  -13.4375   26.2846 H   0  0  0  0  0  0  0  0  0  0  0  0
  1  2  1  0
  2  3  2  0
  3  4  1  0
  4  5  2  0
  5  6  1  0
  6  7  1  0
  7  8  1  0
  8  9  2  0
  8 10  1  0
 10 11  1  0
 11 12  2  0
 12 13  1  0
 13 14  2  0
 14 15  1  0
 15 16  1  0
 16 17  2  0
 17 18  1  0
 18 19  2  0
  5 20  1  0
 20  2  1  0
 19 11  1  0
 18 14  1  0
  1 21  1  0
  1 22  1  0
  1 23  1  0
  3 24  1  0
  4 25  1  0
  6 26  1  0
  6 27  1  0
  7 28  1  0
 10 29  1  0
 12 30  1  0
 13 31  1  0
 15 32  1  0
 16 33  1  0
 17 34  1  0
 19 35  1  0
M  END
>  <Energy>  (729) 
-15.425773534127888

>  <compound_id>  (729) 
25781

>  <target_id>  (729) 
1

>  <reference_id>  (729) 
39

>  <inspiration_ids>  (729) 
[66, 39]

>  <energy_score>  (729) 
0.47945288142545905

>  <distance_score>  (729) 
14.393752011106878

>  <path>  (729) 
/opt/xchem-fragalysis-2/maxwin/BulkDock/SCRATCH/511016/C25781-P39/C25781-P39.minimised.mol

>  <scratch_subdir>  (729) 
/opt/xchem-fragalysis-2/maxwin/BulkDock/SCRATCH/511016/C25781-P39

>  <fragmenstein_runtime>  (729) 
29.483421087265015

>  <fragmenstein_outcome>  (729) 
too moved

>  <fragmenstein_mode>  (729) 
expansion

>  <fragmenstein_error>  (729) 


$$$$
C25784-P66
     RDKit          3D

 47 49  0  0  0  0  0  0  0  0999 V2000
    1.1969  -20.5339   24.9183 C   0  0  0  0  0  0  0  0  0  0  0  0
    0.1244  -21.2892   25.7051 C   0  0  0  0  0  0  0  0  0  0  0  0
   -0.7256  -20.7824   26.6646 C   0  0  0  0  0  0  0  0  0  0  0  0
   -1.6442  -21.7768   27.2034 C   0  0  0  0  0  0  0  0  0  0  0  0
   -1.5202  -23.0778   26.6933 C   0  0  0  0  0  0  0  0  0  0  0  0
   -2.5516  -24.4430   26.8886 C   0  0  0  0  0  0  0  0  0  0  0  0
   -2.6296  -25.3854   28.1946 N   0  0  0  0  0  0  0  0  0  0  0  0
   -1.9039  -24.8557   29.3521 C   0  0  0  0  0  0  0  0  0  0  0  0
   -0.9730  -25.8881   30.0305 C   0  0  0  0  0  0  0  0  0  0  0  0
   -0.0783  -25.2962   31.0475 N   0  0  0  0  0  0  0  0  0  0  0  0
    0.9490  -26.2709   31.4283 C   0  0  0  0  0  0  0  0  0  0  0  0
   -0.8064  -24.8589   32.2387 C   0  0  0  0  0  0  0  0  0  0  0  0
   -3.3699  -26.7754   28.3756 C   0  0  0  0  0  0  0  0  0  0  0  0
   -2.6732  -27.7653   28.0974 O   0  0  0  0  0  0  0  0  0  0  0  0
   -4.9444  -27.2233   28.9851 C   0  0  0  0  0  0  0  0  0  0  0  0
   -4.9336  -28.1692   30.4003 C   0  0  0  0  0  0  0  0  0  0  0  0
   -6.5087  -28.6668   31.2730 C   0  0  0  0  0  0  0  0  0  0  0  0
   -8.1825  -28.1247   30.7407 C   0  0  0  0  0  0  0  0  0  0  0  0
   -9.3989  -27.5853   31.3578 N   0  0  0  0  0  0  0  0  0  0  0  0
  -10.0646  -26.6011   30.5769 C   0  0  0  0  0  0  0  0  0  0  0  0
   -9.4569  -26.2516   29.3682 C   0  0  0  0  0  0  0  0  0  0  0  0
   -8.2363  -27.0374   29.2392 C   0  0  0  0  0  0  0  0  0  0  0  0
   -6.6239  -26.9621   28.3992 C   0  0  0  0  0  0  0  0  0  0  0  0
   -0.2228  -22.9873   25.4754 S   0  0  0  0  0  0  0  0  0  0  0  0
    1.6920  -19.8039   25.5652 H   0  0  0  0  0  0  0  0  0  0  0  0
    1.9541  -21.2238   24.5338 H   0  0  0  0  0  0  0  0  0  0  0  0
    0.7305  -20.0137   24.0771 H   0  0  0  0  0  0  0  0  0  0  0  0
   -0.7209  -19.7453   26.9796 H   0  0  0  0  0  0  0  0  0  0  0  0
   -2.4003  -21.5275   27.9394 H   0  0  0  0  0  0  0  0  0  0  0  0
   -2.3474  -25.1109   26.0451 H   0  0  0  0  0  0  0  0  0  0  0  0
   -3.5533  -24.0183   26.7763 H   0  0  0  0  0  0  0  0  0  0  0  0
   -2.6098  -24.3788   30.0279 H   0  0  0  0  0  0  0  0  0  0  0  0
   -1.2539  -24.0484   29.0055 H   0  0  0  0  0  0  0  0  0  0  0  0
   -1.5459  -26.7158   30.4640 H   0  0  0  0  0  0  0  0  0  0  0  0
   -0.3551  -26.3260   29.2344 H   0  0  0  0  0  0  0  0  0  0  0  0
    1.5467  -26.5623   30.5574 H   0  0  0  0  0  0  0  0  0  0  0  0
    1.6469  -25.8330   32.1508 H   0  0  0  0  0  0  0  0  0  0  0  0
    0.5163  -27.1760   31.8701 H   0  0  0  0  0  0  0  0  0  0  0  0
   -1.3611  -25.6788   32.7087 H   0  0  0  0  0  0  0  0  0  0  0  0
   -0.1149  -24.4446   32.9814 H   0  0  0  0  0  0  0  0  0  0  0  0
   -1.5075  -24.0539   31.9984 H   0  0  0  0  0  0  0  0  0  0  0  0
   -3.9736  -28.4447   30.8635 H   0  0  0  0  0  0  0  0  0  0  0  0
   -6.4458  -29.1232   32.2632 H   0  0  0  0  0  0  0  0  0  0  0  0
   -9.6039  -27.7667   32.3301 H   0  0  0  0  0  0  0  0  0  0  0  0
  -10.9309  -26.1553   31.0456 H   0  0  0  0  0  0  0  0  0  0  0  0
   -9.7734  -25.4459   28.7211 H   0  0  0  0  0  0  0  0  0  0  0  0
   -6.8266  -27.1281   27.3632 H   0  0  0  0  0  0  0  0  0  0  0  0
  1  2  1  0
  2  3  2  0
  3  4  1  0
  4  5  2  0
  5  6  1  0
  6  7  1  0
  7  8  1  0
  8  9  1  0
  9 10  1  0
 10 11  1  0
 10 12  1  0
  7 13  1  0
 13 14  2  0
 13 15  1  0
 15 16  2  0
 16 17  1  0
 17 18  2  0
 18 19  1  0
 19 20  1  0
 20 21  2  0
 21 22  1  0
 22 23  2  0
  5 24  1  0
 24  2  1  0
 23 15  1  0
 22 18  1  0
  1 25  1  0
  1 26  1  0
  1 27  1  0
  3 28  1  0
  4 29  1  0
  6 30  1  0
  6 31  1  0
  8 32  1  0
  8 33  1  0
  9 34  1  0
  9 35  1  0
 11 36  1  0
 11 37  1  0
 11 38  1  0
 12 39  1  0
 12 40  1  0
 12 41  1  0
 16 42  1  0
 17 43  1  0
 19 44  1  0
 20 45  1  0
 21 46  1  0
 23 47  1  0
M  END
>  <Energy>  (730) 
472.33584858784599

>  <compound_id>  (730) 
25784

>  <target_id>  (730) 
1

>  <reference_id>  (730) 
66

>  <inspiration_ids>  (730) 
[66, 39]

>  <energy_score>  (730) 
376.2809084078765

>  <distance_score>  (730) 
17.814327742819188

>  <path>  (730) 
/opt/xchem-fragalysis-2/maxwin/BulkDock/SCRATCH/511016/C25784-P66/C25784-P66.minimised.mol

>  <scratch_subdir>  (730) 
/opt/xchem-fragalysis-2/maxwin/BulkDock/SCRATCH/511016/C25784-P66

>  <fragmenstein_runtime>  (730) 
33.62265968322754

>  <fragmenstein_outcome>  (730) 
too moved

>  <fragmenstein_mode>  (730) 
expansion

>  <fragmenstein_error>  (730) 


$$$$
C25784-P39
     RDKit          3D

 47 49  0  0  0  0  0  0  0  0999 V2000
    4.2898  -11.4049   15.7730 C   0  0  0  0  0  0  0  0  0  0  0  0
    3.5326  -12.6299   16.2295 C   0  0  0  0  0  0  0  0  0  0  0  0
    3.9326  -13.5735   17.1460 C   0  0  0  0  0  0  0  0  0  0  0  0
    2.9108  -14.5503   17.4283 C   0  0  0  0  0  0  0  0  0  0  0  0
    1.7119  -14.3639   16.7568 C   0  0  0  0  0  0  0  0  0  0  0  0
    0.2797  -15.0308   16.9057 C   0  0  0  0  0  0  0  0  0  0  0  0
    0.0487  -16.4859   17.2376 N   0  0  0  0  0  0  0  0  0  0  0  0
    1.1498  -17.4437   17.2656 C   0  0  0  0  0  0  0  0  0  0  0  0
    1.5895  -17.9382   18.6594 C   0  0  0  0  0  0  0  0  0  0  0  0
    2.3490  -19.2079   18.5793 N   0  0  0  0  0  0  0  0  0  0  0  0
    3.1596  -19.4180   19.7764 C   0  0  0  0  0  0  0  0  0  0  0  0
    1.4481  -20.3536   18.4011 C   0  0  0  0  0  0  0  0  0  0  0  0
   -1.2410  -17.0471   17.5425 C   0  0  0  0  0  0  0  0  0  0  0  0
   -1.9016  -17.4820   16.5891 O   0  0  0  0  0  0  0  0  0  0  0  0
   -1.8924  -17.3094   18.9125 C   0  0  0  0  0  0  0  0  0  0  0  0
   -2.4732  -16.3219   19.7133 C   0  0  0  0  0  0  0  0  0  0  0  0
   -3.3173  -16.6246   20.8254 C   0  0  0  0  0  0  0  0  0  0  0  0
   -3.6247  -17.9668   21.1066 C   0  0  0  0  0  0  0  0  0  0  0  0
   -4.4465  -18.5348   22.0623 N   0  0  0  0  0  0  0  0  0  0  0  0
   -4.4674  -19.8988   21.9213 C   0  0  0  0  0  0  0  0  0  0  0  0
   -3.6432  -20.2185   20.8631 C   0  0  0  0  0  0  0  0  0  0  0  0
   -3.1017  -19.0027   20.3354 C   0  0  0  0  0  0  0  0  0  0  0  0
   -2.2421  -18.6593   19.2405 C   0  0  0  0  0  0  0  0  0  0  0  0
    1.9652  -13.0318   15.6248 S   0  0  0  0  0  0  0  0  0  0  0  0
    4.4923  -11.4635   14.6990 H   0  0  0  0  0  0  0  0  0  0  0  0
    3.7064  -10.5012   15.9751 H   0  0  0  0  0  0  0  0  0  0  0  0
    5.2462  -11.3211   16.2991 H   0  0  0  0  0  0  0  0  0  0  0  0
    4.8878  -13.5500   17.6582 H   0  0  0  0  0  0  0  0  0  0  0  0
    3.0473  -15.3179   18.1756 H   0  0  0  0  0  0  0  0  0  0  0  0
   -0.1849  -14.9362   15.9135 H   0  0  0  0  0  0  0  0  0  0  0  0
   -0.3550  -14.4257   17.5526 H   0  0  0  0  0  0  0  0  0  0  0  0
    0.7886  -18.2964   16.6787 H   0  0  0  0  0  0  0  0  0  0  0  0
    2.0024  -17.0579   16.6996 H   0  0  0  0  0  0  0  0  0  0  0  0
    2.2197  -17.1558   19.0928 H   0  0  0  0  0  0  0  0  0  0  0  0
    0.7422  -18.0486   19.3432 H   0  0  0  0  0  0  0  0  0  0  0  0
    3.9156  -18.6323   19.8660 H   0  0  0  0  0  0  0  0  0  0  0  0
    2.5562  -19.4346   20.6905 H   0  0  0  0  0  0  0  0  0  0  0  0
    3.7112  -20.3630   19.7118 H   0  0  0  0  0  0  0  0  0  0  0  0
    2.0242  -21.2824   18.3179 H   0  0  0  0  0  0  0  0  0  0  0  0
    0.8673  -20.2749   17.4777 H   0  0  0  0  0  0  0  0  0  0  0  0
    0.7488  -20.4613   19.2385 H   0  0  0  0  0  0  0  0  0  0  0  0
   -2.3348  -15.2780   19.4439 H   0  0  0  0  0  0  0  0  0  0  0  0
   -3.7549  -15.8181   21.4064 H   0  0  0  0  0  0  0  0  0  0  0  0
   -4.9682  -18.0124   22.7516 H   0  0  0  0  0  0  0  0  0  0  0  0
   -5.0675  -20.5198   22.5729 H   0  0  0  0  0  0  0  0  0  0  0  0
   -3.4576  -21.2169   20.4889 H   0  0  0  0  0  0  0  0  0  0  0  0
   -1.8927  -19.4582   18.5880 H   0  0  0  0  0  0  0  0  0  0  0  0
  1  2  1  0
  2  3  2  0
  3  4  1  0
  4  5  2  0
  5  6  1  0
  6  7  1  0
  7  8  1  0
  8  9  1  0
  9 10  1  0
 10 11  1  0
 10 12  1  0
  7 13  1  0
 13 14  2  0
 13 15  1  0
 15 16  2  0
 16 17  1  0
 17 18  2  0
 18 19  1  0
 19 20  1  0
 20 21  2  0
 21 22  1  0
 22 23  2  0
  5 24  1  0
 24  2  1  0
 23 15  1  0
 22 18  1  0
  1 25  1  0
  1 26  1  0
  1 27  1  0
  3 28  1  0
  4 29  1  0
  6 30  1  0
  6 31  1  0
  8 32  1  0
  8 33  1  0
  9 34  1  0
  9 35  1  0
 11 36  1  0
 11 37  1  0
 11 38  1  0
 12 39  1  0
 12 40  1  0
 12 41  1  0
 16 42  1  0
 17 43  1  0
 19 44  1  0
 20 45  1  0
 21 46  1  0
 23 47  1  0
M  END
>  <Energy>  (731) 
100.54913780578769

>  <compound_id>  (731) 
25784

>  <target_id>  (731) 
1

>  <reference_id>  (731) 
39

>  <inspiration_ids>  (731) 
[66, 39]

>  <energy_score>  (731) 
4.494197625826132

>  <distance_score>  (731) 
15.429956256648392

>  <path>  (731) 
/opt/xchem-fragalysis-2/maxwin/BulkDock/SCRATCH/511016/C25784-P39/C25784-P39.minimised.mol

>  <scratch_subdir>  (731) 
/opt/xchem-fragalysis-2/maxwin/BulkDock/SCRATCH/511016/C25784-P39

>  <fragmenstein_runtime>  (731) 
46.37127637863159

>  <fragmenstein_outcome>  (731) 
too moved

>  <fragmenstein_mode>  (731) 
expansion

>  <fragmenstein_error>  (731) 


$$$$
C25785-P66
     RDKit          3D

 40 42  0  0  0  0  0  0  0  0999 V2000
    2.5827   -9.6712   29.3920 C   0  0  0  0  0  0  0  0  0  0  0  0
    2.5415  -11.0632   28.7708 C   0  0  0  0  0  0  0  0  0  0  0  0
    4.0067  -12.2679   28.2977 N   0  0  0  0  0  0  0  0  0  0  0  0
    3.2795  -13.8633   27.3511 C   0  0  0  0  0  0  0  0  0  0  0  0
    1.3885  -14.2884   27.0403 C   0  0  0  0  0  0  0  0  0  0  0  0
    0.1990  -13.2539   26.7056 C   0  0  0  0  0  0  0  0  0  0  0  0
   -1.3169  -13.6320   27.2358 C   0  0  0  0  0  0  0  0  0  0  0  0
   -1.5839  -14.8463   28.2496 C   0  0  0  0  0  0  0  0  0  0  0  0
   -2.7686  -15.3590   28.7542 N   0  0  0  0  0  0  0  0  0  0  0  0
   -2.5394  -16.4511   29.5585 C   0  0  0  0  0  0  0  0  0  0  0  0
   -1.1813  -16.6745   29.6732 C   0  0  0  0  0  0  0  0  0  0  0  0
   -0.5021  -15.7001   28.8832 C   0  0  0  0  0  0  0  0  0  0  0  0
    1.0550  -15.5336   28.3306 C   0  0  0  0  0  0  0  0  0  0  0  0
    5.6752  -11.2292   28.2305 S   0  0  0  0  0  0  0  0  0  0  0  0
    5.0969   -9.8904   28.3550 O   0  0  0  0  0  0  0  0  0  0  0  0
    6.5708  -11.6086   29.3023 O   0  0  0  0  0  0  0  0  0  0  0  0
    6.8238  -10.7388   26.8149 C   0  0  0  0  0  0  0  0  0  0  0  0
    6.9813   -9.4492   26.2747 C   0  0  0  0  0  0  0  0  0  0  0  0
    8.1284   -9.2612   25.4612 C   0  0  0  0  0  0  0  0  0  0  0  0
    8.9181  -10.3864   25.4544 C   0  0  0  0  0  0  0  0  0  0  0  0
   10.2840  -10.5051   24.8385 C   0  0  0  0  0  0  0  0  0  0  0  0
    8.1528  -11.7007   26.3091 S   0  0  0  0  0  0  0  0  0  0  0  0
    3.5421   -9.2417   29.6435 H   0  0  0  0  0  0  0  0  0  0  0  0
    1.9802   -8.9963   28.7793 H   0  0  0  0  0  0  0  0  0  0  0  0
    2.0322   -9.6817   30.3457 H   0  0  0  0  0  0  0  0  0  0  0  0
    1.9936  -11.5462   29.5780 H   0  0  0  0  0  0  0  0  0  0  0  0
    1.9310  -10.9274   27.8748 H   0  0  0  0  0  0  0  0  0  0  0  0
    3.8318  -14.0370   26.4062 H   0  0  0  0  0  0  0  0  0  0  0  0
    3.6280  -14.7661   27.8514 H   0  0  0  0  0  0  0  0  0  0  0  0
    0.4382  -12.2463   26.4139 H   0  0  0  0  0  0  0  0  0  0  0  0
   -2.1492  -12.9765   26.9948 H   0  0  0  0  0  0  0  0  0  0  0  0
   -3.6834  -15.0057   28.5154 H   0  0  0  0  0  0  0  0  0  0  0  0
   -3.3738  -16.9925   29.9870 H   0  0  0  0  0  0  0  0  0  0  0  0
   -0.7255  -17.4927   30.2147 H   0  0  0  0  0  0  0  0  0  0  0  0
    1.8277  -16.2306   28.6535 H   0  0  0  0  0  0  0  0  0  0  0  0
    6.2936   -8.6489   26.5150 H   0  0  0  0  0  0  0  0  0  0  0  0
    8.3949   -8.3239   24.9864 H   0  0  0  0  0  0  0  0  0  0  0  0
   11.0490  -10.4705   25.6209 H   0  0  0  0  0  0  0  0  0  0  0  0
   10.3870  -11.4493   24.2958 H   0  0  0  0  0  0  0  0  0  0  0  0
   10.4749   -9.6849   24.1391 H   0  0  0  0  0  0  0  0  0  0  0  0
  1  2  1  0
  2  3  1  0
  3  4  1  0
  4  5  1  0
  5  6  2  0
  6  7  1  0
  7  8  2  0
  8  9  1  0
  9 10  1  0
 10 11  2  0
 11 12  1  0
 12 13  2  0
  3 14  1  0
 14 15  2  0
 14 16  2  0
 14 17  1  0
 17 18  2  0
 18 19  1  0
 19 20  2  0
 20 21  1  0
 20 22  1  0
 13  5  1  0
 22 17  1  0
 12  8  1  0
  1 23  1  0
  1 24  1  0
  1 25  1  0
  2 26  1  0
  2 27  1  0
  4 28  1  0
  4 29  1  0
  6 30  1  0
  7 31  1  0
  9 32  1  0
 10 33  1  0
 11 34  1  0
 13 35  1  0
 18 36  1  0
 19 37  1  0
 21 38  1  0
 21 39  1  0
 21 40  1  0
M  END
>  <Energy>  (732) 
359.77610219863016

>  <compound_id>  (732) 
25785

>  <target_id>  (732) 
1

>  <reference_id>  (732) 
66

>  <inspiration_ids>  (732) 
[66, 39]

>  <energy_score>  (732) 
321.40528486434584

>  <distance_score>  (732) 
14.86482651228241

>  <path>  (732) 
/opt/xchem-fragalysis-2/maxwin/BulkDock/SCRATCH/511016/C25785-P66/C25785-P66.minimised.mol

>  <scratch_subdir>  (732) 
/opt/xchem-fragalysis-2/maxwin/BulkDock/SCRATCH/511016/C25785-P66

>  <fragmenstein_runtime>  (732) 
19.064024925231934

>  <fragmenstein_outcome>  (732) 
too moved

>  <fragmenstein_mode>  (732) 
expansion

>  <fragmenstein_error>  (732) 


$$$$
C25785-P39
     RDKit          3D

 40 42  0  0  0  0  0  0  0  0999 V2000
   -4.5029  -16.6281   19.3848 C   0  0  0  0  0  0  0  0  0  0  0  0
   -3.8519  -16.0241   20.6145 C   0  0  0  0  0  0  0  0  0  0  0  0
   -4.7085  -15.0859   21.3832 N   0  0  0  0  0  0  0  0  0  0  0  0
   -5.8854  -15.7038   22.1939 C   0  0  0  0  0  0  0  0  0  0  0  0
   -6.0097  -17.2227   22.3880 C   0  0  0  0  0  0  0  0  0  0  0  0
   -5.0778  -17.9495   23.1373 C   0  0  0  0  0  0  0  0  0  0  0  0
   -5.1121  -19.3532   23.1993 C   0  0  0  0  0  0  0  0  0  0  0  0
   -6.1423  -20.0245   22.5264 C   0  0  0  0  0  0  0  0  0  0  0  0
   -6.3977  -21.3743   22.3831 N   0  0  0  0  0  0  0  0  0  0  0  0
   -7.5649  -21.5656   21.6929 C   0  0  0  0  0  0  0  0  0  0  0  0
   -8.0575  -20.3248   21.3550 C   0  0  0  0  0  0  0  0  0  0  0  0
   -7.1564  -19.3424   21.8606 C   0  0  0  0  0  0  0  0  0  0  0  0
   -7.0893  -17.9299   21.8033 C   0  0  0  0  0  0  0  0  0  0  0  0
   -5.1457  -13.5884   20.5216 S   0  0  0  0  0  0  0  0  0  0  0  0
   -5.7594  -12.7477   21.5359 O   0  0  0  0  0  0  0  0  0  0  0  0
   -5.8989  -13.9549   19.3414 O   0  0  0  0  0  0  0  0  0  0  0  0
   -3.7606  -12.4365   19.8695 C   0  0  0  0  0  0  0  0  0  0  0  0
   -3.3236  -11.2070   20.3659 C   0  0  0  0  0  0  0  0  0  0  0  0
   -2.5018  -10.4638   19.4634 C   0  0  0  0  0  0  0  0  0  0  0  0
   -2.3193  -11.1158   18.2609 C   0  0  0  0  0  0  0  0  0  0  0  0
   -1.5818  -10.6025   17.0441 C   0  0  0  0  0  0  0  0  0  0  0  0
   -3.1086  -12.6628   18.2833 S   0  0  0  0  0  0  0  0  0  0  0  0
   -3.9102  -17.4786   19.0316 H   0  0  0  0  0  0  0  0  0  0  0  0
   -4.5403  -15.9095   18.5613 H   0  0  0  0  0  0  0  0  0  0  0  0
   -5.5201  -16.9778   19.5713 H   0  0  0  0  0  0  0  0  0  0  0  0
   -2.9429  -15.4879   20.3164 H   0  0  0  0  0  0  0  0  0  0  0  0
   -3.4975  -16.8170   21.2784 H   0  0  0  0  0  0  0  0  0  0  0  0
   -5.8377  -15.2475   23.1912 H   0  0  0  0  0  0  0  0  0  0  0  0
   -6.8183  -15.3487   21.7378 H   0  0  0  0  0  0  0  0  0  0  0  0
   -4.2615  -17.4278   23.6354 H   0  0  0  0  0  0  0  0  0  0  0  0
   -4.3406  -19.8981   23.7359 H   0  0  0  0  0  0  0  0  0  0  0  0
   -5.8225  -22.1124   22.7649 H   0  0  0  0  0  0  0  0  0  0  0  0
   -7.9482  -22.5606   21.5029 H   0  0  0  0  0  0  0  0  0  0  0  0
   -8.9675  -20.1442   20.7974 H   0  0  0  0  0  0  0  0  0  0  0  0
   -7.8539  -17.3965   21.2430 H   0  0  0  0  0  0  0  0  0  0  0  0
   -3.6743  -10.8195   21.3137 H   0  0  0  0  0  0  0  0  0  0  0  0
   -2.1003   -9.4778   19.6708 H   0  0  0  0  0  0  0  0  0  0  0  0
   -1.0457   -9.6729   17.2541 H   0  0  0  0  0  0  0  0  0  0  0  0
   -2.3061  -10.3878   16.2504 H   0  0  0  0  0  0  0  0  0  0  0  0
   -0.8824  -11.3510   16.6632 H   0  0  0  0  0  0  0  0  0  0  0  0
  1  2  1  0
  2  3  1  0
  3  4  1  0
  4  5  1  0
  5  6  2  0
  6  7  1  0
  7  8  2  0
  8  9  1  0
  9 10  1  0
 10 11  2  0
 11 12  1  0
 12 13  2  0
  3 14  1  0
 14 15  2  0
 14 16  2  0
 14 17  1  0
 17 18  2  0
 18 19  1  0
 19 20  2  0
 20 21  1  0
 20 22  1  0
 13  5  1  0
 22 17  1  0
 12  8  1  0
  1 23  1  0
  1 24  1  0
  1 25  1  0
  2 26  1  0
  2 27  1  0
  4 28  1  0
  4 29  1  0
  6 30  1  0
  7 31  1  0
  9 32  1  0
 10 33  1  0
 11 34  1  0
 13 35  1  0
 18 36  1  0
 19 37  1  0
 21 38  1  0
 21 39  1  0
 21 40  1  0
M  END
>  <Energy>  (733) 
1.5674561425179483

>  <compound_id>  (733) 
25785

>  <target_id>  (733) 
1

>  <reference_id>  (733) 
39

>  <inspiration_ids>  (733) 
[66, 39]

>  <energy_score>  (733) 
-36.80336119175968

>  <distance_score>  (733) 
15.09144469898168

>  <path>  (733) 
/opt/xchem-fragalysis-2/maxwin/BulkDock/SCRATCH/511016/C25785-P39/C25785-P39.minimised.mol

>  <scratch_subdir>  (733) 
/opt/xchem-fragalysis-2/maxwin/BulkDock/SCRATCH/511016/C25785-P39

>  <fragmenstein_runtime>  (733) 
19.58204174041748

>  <fragmenstein_outcome>  (733) 
too moved

>  <fragmenstein_mode>  (733) 
expansion

>  <fragmenstein_error>  (733) 


$$$$
C25787-P66
     RDKit          3D

 43 45  0  0  0  0  0  0  0  0999 V2000
    0.5444   -8.0791   17.7743 C   0  0  0  0  0  0  0  0  0  0  0  0
    0.1353   -8.6840   19.0699 C   0  0  0  0  0  0  0  0  0  0  0  0
    0.4379   -8.2813   20.3469 C   0  0  0  0  0  0  0  0  0  0  0  0
   -0.1421   -9.1540   21.3299 C   0  0  0  0  0  0  0  0  0  0  0  0
   -0.7386  -10.2945   20.8156 C   0  0  0  0  0  0  0  0  0  0  0  0
   -1.3207  -11.6005   21.4131 C   0  0  0  0  0  0  0  0  0  0  0  0
   -2.4303  -11.9211   20.9908 O   0  0  0  0  0  0  0  0  0  0  0  0
   -0.2700  -12.4815   22.6721 N   0  0  0  0  0  0  0  0  0  0  0  0
   -0.6628  -14.0812   23.7961 C   0  0  0  0  0  0  0  0  0  0  0  0
   -2.0439  -14.3517   25.2348 C   0  0  0  0  0  0  0  0  0  0  0  0
   -3.4823  -13.6361   25.3994 N   0  0  0  0  0  0  0  0  0  0  0  0
   -3.7880  -12.2405   25.6475 C   0  0  0  0  0  0  0  0  0  0  0  0
   -4.6127  -14.4147   25.2969 C   0  0  0  0  0  0  0  0  0  0  0  0
   -5.1773  -14.6078   24.2265 O   0  0  0  0  0  0  0  0  0  0  0  0
   -5.1289  -14.9828   26.5543 C   0  0  0  0  0  0  0  0  0  0  0  0
   -4.3317  -15.1807   27.6927 C   0  0  0  0  0  0  0  0  0  0  0  0
   -4.7300  -16.0213   28.7234 C   0  0  0  0  0  0  0  0  0  0  0  0
   -5.9396  -16.6527   28.5179 C   0  0  0  0  0  0  0  0  0  0  0  0
   -6.4738  -17.7324   29.1497 N   0  0  0  0  0  0  0  0  0  0  0  0
   -7.4852  -18.1497   28.3481 C   0  0  0  0  0  0  0  0  0  0  0  0
   -7.9593  -17.1162   27.6061 C   0  0  0  0  0  0  0  0  0  0  0  0
   -6.8235  -16.3220   27.4876 C   0  0  0  0  0  0  0  0  0  0  0  0
   -6.4361  -15.4423   26.4959 C   0  0  0  0  0  0  0  0  0  0  0  0
   -0.9175  -10.0372   19.0928 S   0  0  0  0  0  0  0  0  0  0  0  0
    1.2407   -7.2490   17.9331 H   0  0  0  0  0  0  0  0  0  0  0  0
    1.0457   -8.8181   17.1407 H   0  0  0  0  0  0  0  0  0  0  0  0
   -0.3255   -7.6891   17.2356 H   0  0  0  0  0  0  0  0  0  0  0  0
    1.0329   -7.4089   20.5840 H   0  0  0  0  0  0  0  0  0  0  0  0
   -0.0601   -8.9455   22.3780 H   0  0  0  0  0  0  0  0  0  0  0  0
    0.5783  -11.9151   22.8842 H   0  0  0  0  0  0  0  0  0  0  0  0
   -0.9868  -14.8115   23.0642 H   0  0  0  0  0  0  0  0  0  0  0  0
    0.3276  -14.2520   24.2109 H   0  0  0  0  0  0  0  0  0  0  0  0
   -1.9730  -14.7970   26.2091 H   0  0  0  0  0  0  0  0  0  0  0  0
   -2.4153  -15.2963   24.7743 H   0  0  0  0  0  0  0  0  0  0  0  0
   -4.4462  -11.8800   24.8485 H   0  0  0  0  0  0  0  0  0  0  0  0
   -4.3487  -12.1476   26.5837 H   0  0  0  0  0  0  0  0  0  0  0  0
   -2.9133  -11.6107   25.6765 H   0  0  0  0  0  0  0  0  0  0  0  0
   -3.3473  -14.7376   27.7710 H   0  0  0  0  0  0  0  0  0  0  0  0
   -4.0770  -16.2570   29.5560 H   0  0  0  0  0  0  0  0  0  0  0  0
   -6.0393  -18.2829   29.8844 H   0  0  0  0  0  0  0  0  0  0  0  0
   -7.8154  -19.1455   28.4261 H   0  0  0  0  0  0  0  0  0  0  0  0
   -8.8296  -17.1037   26.9676 H   0  0  0  0  0  0  0  0  0  0  0  0
   -7.0654  -15.2617   25.6293 H   0  0  0  0  0  0  0  0  0  0  0  0
  1  2  1  0
  2  3  2  0
  3  4  1  0
  4  5  2  0
  5  6  1  0
  6  7  2  0
  6  8  1  0
  8  9  1  0
  9 10  1  0
 10 11  1  0
 11 12  1  0
 11 13  1  0
 13 14  2  0
 13 15  1  0
 15 16  2  0
 16 17  1  0
 17 18  2  0
 18 19  1  0
 19 20  1  0
 20 21  2  0
 21 22  1  0
 22 23  2  0
  5 24  1  0
 24  2  1  0
 23 15  1  0
 22 18  1  0
  1 25  1  0
  1 26  1  0
  1 27  1  0
  3 28  1  0
  4 29  1  0
  8 30  1  0
  9 31  1  0
  9 32  1  0
 10 33  1  0
 10 34  1  0
 12 35  1  0
 12 36  1  0
 12 37  1  0
 16 38  1  0
 17 39  1  0
 19 40  1  0
 20 41  1  0
 21 42  1  0
 23 43  1  0
M  END
>  <Energy>  (734) 
306.7358152335396

>  <compound_id>  (734) 
25787

>  <target_id>  (734) 
1

>  <reference_id>  (734) 
66

>  <inspiration_ids>  (734) 
[66, 39]

>  <energy_score>  (734) 
249.83886209253893

>  <distance_score>  (734) 
14.30091461318069

>  <path>  (734) 
/opt/xchem-fragalysis-2/maxwin/BulkDock/SCRATCH/511016/C25787-P66/C25787-P66.minimised.mol

>  <scratch_subdir>  (734) 
/opt/xchem-fragalysis-2/maxwin/BulkDock/SCRATCH/511016/C25787-P66

>  <fragmenstein_runtime>  (734) 
35.38362956047058

>  <fragmenstein_outcome>  (734) 
too moved

>  <fragmenstein_mode>  (734) 
expansion

>  <fragmenstein_error>  (734) 


$$$$
C25787-P39
     RDKit          3D

 43 45  0  0  0  0  0  0  0  0999 V2000
    4.9071  -12.8750   16.6891 C   0  0  0  0  0  0  0  0  0  0  0  0
    3.4275  -12.9960   16.5742 C   0  0  0  0  0  0  0  0  0  0  0  0
    2.5042  -12.0242   16.2635 C   0  0  0  0  0  0  0  0  0  0  0  0
    1.1697  -12.5440   16.2873 C   0  0  0  0  0  0  0  0  0  0  0  0
    1.0795  -13.8967   16.6299 C   0  0  0  0  0  0  0  0  0  0  0  0
   -0.1885  -14.7234   16.7351 C   0  0  0  0  0  0  0  0  0  0  0  0
   -1.1715  -14.2278   16.2652 O   0  0  0  0  0  0  0  0  0  0  0  0
    0.0104  -16.0149   17.3530 N   0  0  0  0  0  0  0  0  0  0  0  0
   -0.9057  -17.1663   17.5122 C   0  0  0  0  0  0  0  0  0  0  0  0
   -1.8738  -17.2303   18.7515 C   0  0  0  0  0  0  0  0  0  0  0  0
   -1.8612  -18.5641   19.4206 N   0  0  0  0  0  0  0  0  0  0  0  0
   -0.7588  -18.8679   20.3036 C   0  0  0  0  0  0  0  0  0  0  0  0
   -2.8141  -19.5718   19.2833 C   0  0  0  0  0  0  0  0  0  0  0  0
   -2.6740  -20.4161   18.3953 O   0  0  0  0  0  0  0  0  0  0  0  0
   -3.9630  -19.7653   20.2426 C   0  0  0  0  0  0  0  0  0  0  0  0
   -4.9227  -18.7930   20.5257 C   0  0  0  0  0  0  0  0  0  0  0  0
   -6.1468  -19.1337   21.1497 C   0  0  0  0  0  0  0  0  0  0  0  0
   -6.3711  -20.4795   21.4826 C   0  0  0  0  0  0  0  0  0  0  0  0
   -7.5155  -21.1366   21.8743 N   0  0  0  0  0  0  0  0  0  0  0  0
   -7.2371  -22.4467   22.1594 C   0  0  0  0  0  0  0  0  0  0  0  0
   -5.9180  -22.6743   21.8517 C   0  0  0  0  0  0  0  0  0  0  0  0
   -5.3837  -21.4531   21.3491 C   0  0  0  0  0  0  0  0  0  0  0  0
   -4.1706  -21.0854   20.7227 C   0  0  0  0  0  0  0  0  0  0  0  0
    2.6711  -14.5145   16.8545 S   0  0  0  0  0  0  0  0  0  0  0  0
    5.2342  -11.8546   16.4634 H   0  0  0  0  0  0  0  0  0  0  0  0
    5.2376  -13.1155   17.7050 H   0  0  0  0  0  0  0  0  0  0  0  0
    5.4090  -13.5501   15.9882 H   0  0  0  0  0  0  0  0  0  0  0  0
    2.7573  -10.9945   16.0414 H   0  0  0  0  0  0  0  0  0  0  0  0
    0.2878  -11.9499   16.0741 H   0  0  0  0  0  0  0  0  0  0  0  0
    0.9958  -16.1324   17.5630 H   0  0  0  0  0  0  0  0  0  0  0  0
   -0.2620  -18.0525   17.4934 H   0  0  0  0  0  0  0  0  0  0  0  0
   -1.5201  -17.1927   16.6048 H   0  0  0  0  0  0  0  0  0  0  0  0
   -2.8971  -17.0444   18.4077 H   0  0  0  0  0  0  0  0  0  0  0  0
   -1.6136  -16.4679   19.4900 H   0  0  0  0  0  0  0  0  0  0  0  0
   -0.3856  -17.9537   20.7643 H   0  0  0  0  0  0  0  0  0  0  0  0
    0.0277  -19.3353   19.7058 H   0  0  0  0  0  0  0  0  0  0  0  0
   -1.0642  -19.5775   21.0786 H   0  0  0  0  0  0  0  0  0  0  0  0
   -4.7765  -17.7764   20.1672 H   0  0  0  0  0  0  0  0  0  0  0  0
   -6.9264  -18.3872   21.2666 H   0  0  0  0  0  0  0  0  0  0  0  0
   -8.4359  -20.7209   21.9182 H   0  0  0  0  0  0  0  0  0  0  0  0
   -8.0178  -23.1072   22.5052 H   0  0  0  0  0  0  0  0  0  0  0  0
   -5.4127  -23.6294   21.9055 H   0  0  0  0  0  0  0  0  0  0  0  0
   -3.4293  -21.8533   20.5093 H   0  0  0  0  0  0  0  0  0  0  0  0
  1  2  1  0
  2  3  2  0
  3  4  1  0
  4  5  2  0
  5  6  1  0
  6  7  2  0
  6  8  1  0
  8  9  1  0
  9 10  1  0
 10 11  1  0
 11 12  1  0
 11 13  1  0
 13 14  2  0
 13 15  1  0
 15 16  2  0
 16 17  1  0
 17 18  2  0
 18 19  1  0
 19 20  1  0
 20 21  2  0
 21 22  1  0
 22 23  2  0
  5 24  1  0
 24  2  1  0
 23 15  1  0
 22 18  1  0
  1 25  1  0
  1 26  1  0
  1 27  1  0
  3 28  1  0
  4 29  1  0
  8 30  1  0
  9 31  1  0
  9 32  1  0
 10 33  1  0
 10 34  1  0
 12 35  1  0
 12 36  1  0
 12 37  1  0
 16 38  1  0
 17 39  1  0
 19 40  1  0
 20 41  1  0
 21 42  1  0
 23 43  1  0
M  END
>  <Energy>  (735) 
63.797986921725119

>  <compound_id>  (735) 
25787

>  <target_id>  (735) 
1

>  <reference_id>  (735) 
39

>  <inspiration_ids>  (735) 
[66, 39]

>  <energy_score>  (735) 
6.901033780731041

>  <distance_score>  (735) 
14.998212537458953

>  <path>  (735) 
/opt/xchem-fragalysis-2/maxwin/BulkDock/SCRATCH/511016/C25787-P39/C25787-P39.minimised.mol

>  <scratch_subdir>  (735) 
/opt/xchem-fragalysis-2/maxwin/BulkDock/SCRATCH/511016/C25787-P39

>  <fragmenstein_runtime>  (735) 
49.1214599609375

>  <fragmenstein_outcome>  (735) 
too moved

>  <fragmenstein_mode>  (735) 
expansion

>  <fragmenstein_error>  (735) 


$$$$
C25788-P66
     RDKit          3D

 43 45  0  0  0  0  0  0  0  0999 V2000
    1.9314   -5.7297   21.0847 C   0  0  0  0  0  0  0  0  0  0  0  0
    0.6938   -6.5202   21.3224 C   0  0  0  0  0  0  0  0  0  0  0  0
    0.1794   -7.5588   20.5872 C   0  0  0  0  0  0  0  0  0  0  0  0
   -1.0297   -8.0958   21.1614 C   0  0  0  0  0  0  0  0  0  0  0  0
   -1.4430   -7.4610   22.3281 C   0  0  0  0  0  0  0  0  0  0  0  0
   -2.6041   -7.6679   23.2960 C   0  0  0  0  0  0  0  0  0  0  0  0
   -2.6431   -6.9276   24.2343 O   0  0  0  0  0  0  0  0  0  0  0  0
   -3.4902   -8.7570   22.9146 N   0  0  0  0  0  0  0  0  0  0  0  0
   -4.7762   -9.2295   23.5150 C   0  0  0  0  0  0  0  0  0  0  0  0
   -5.6785   -9.8838   22.4811 C   0  0  0  0  0  0  0  0  0  0  0  0
   -4.6301  -10.0307   24.8600 C   0  0  0  0  0  0  0  0  0  0  0  0
   -5.3890  -11.2724   25.1220 N   0  0  0  0  0  0  0  0  0  0  0  0
   -4.9541  -12.5630   25.6061 C   0  0  0  0  0  0  0  0  0  0  0  0
   -3.8556  -12.9772   25.8419 O   0  0  0  0  0  0  0  0  0  0  0  0
   -6.0227  -13.6143   25.9796 C   0  0  0  0  0  0  0  0  0  0  0  0
   -7.3624  -13.3571   26.2982 C   0  0  0  0  0  0  0  0  0  0  0  0
   -8.2177  -14.3596   26.8282 C   0  0  0  0  0  0  0  0  0  0  0  0
   -7.6798  -15.6292   27.0829 C   0  0  0  0  0  0  0  0  0  0  0  0
   -8.2142  -16.7364   27.7030 N   0  0  0  0  0  0  0  0  0  0  0  0
   -7.2454  -17.6928   27.8523 C   0  0  0  0  0  0  0  0  0  0  0  0
   -6.1175  -17.2744   27.1951 C   0  0  0  0  0  0  0  0  0  0  0  0
   -6.3643  -15.9470   26.7579 C   0  0  0  0  0  0  0  0  0  0  0  0
   -5.5567  -14.9454   26.1769 C   0  0  0  0  0  0  0  0  0  0  0  0
   -0.2920   -6.1852   22.6757 S   0  0  0  0  0  0  0  0  0  0  0  0
    2.6698   -5.9249   21.8695 H   0  0  0  0  0  0  0  0  0  0  0  0
    2.3852   -5.9931   20.1235 H   0  0  0  0  0  0  0  0  0  0  0  0
    1.7151   -4.6564   21.0671 H   0  0  0  0  0  0  0  0  0  0  0  0
    0.6444   -7.9523   19.6902 H   0  0  0  0  0  0  0  0  0  0  0  0
   -1.5378   -8.9385   20.7108 H   0  0  0  0  0  0  0  0  0  0  0  0
   -3.2021   -9.1169   22.0134 H   0  0  0  0  0  0  0  0  0  0  0  0
   -5.2712   -8.2906   23.7998 H   0  0  0  0  0  0  0  0  0  0  0  0
   -6.6775  -10.0632   22.8916 H   0  0  0  0  0  0  0  0  0  0  0  0
   -5.2824  -10.8346   22.1335 H   0  0  0  0  0  0  0  0  0  0  0  0
   -5.7916   -9.2376   21.6035 H   0  0  0  0  0  0  0  0  0  0  0  0
   -3.5783  -10.2786   25.0213 H   0  0  0  0  0  0  0  0  0  0  0  0
   -4.8980   -9.3578   25.6841 H   0  0  0  0  0  0  0  0  0  0  0  0
   -6.3988  -11.2457   25.1173 H   0  0  0  0  0  0  0  0  0  0  0  0
   -7.7707  -12.3549   26.2062 H   0  0  0  0  0  0  0  0  0  0  0  0
   -9.2397  -14.1156   27.1036 H   0  0  0  0  0  0  0  0  0  0  0  0
   -9.1459  -16.7839   28.0895 H   0  0  0  0  0  0  0  0  0  0  0  0
   -7.4249  -18.5933   28.4121 H   0  0  0  0  0  0  0  0  0  0  0  0
   -5.1821  -17.8148   27.1319 H   0  0  0  0  0  0  0  0  0  0  0  0
   -4.5166  -15.1893   25.9652 H   0  0  0  0  0  0  0  0  0  0  0  0
  1  2  1  0
  2  3  2  0
  3  4  1  0
  4  5  2  0
  5  6  1  0
  6  7  2  0
  6  8  1  0
  8  9  1  0
  9 10  1  0
  9 11  1  0
 11 12  1  0
 12 13  1  0
 13 14  2  0
 13 15  1  0
 15 16  2  0
 16 17  1  0
 17 18  2  0
 18 19  1  0
 19 20  1  0
 20 21  2  0
 21 22  1  0
 22 23  2  0
  5 24  1  0
 24  2  1  0
 23 15  1  0
 22 18  1  0
  1 25  1  0
  1 26  1  0
  1 27  1  0
  3 28  1  0
  4 29  1  0
  8 30  1  0
  9 31  1  0
 10 32  1  0
 10 33  1  0
 10 34  1  0
 11 35  1  0
 11 36  1  0
 12 37  1  0
 16 38  1  0
 17 39  1  0
 19 40  1  0
 20 41  1  0
 21 42  1  0
 23 43  1  0
M  END
>  <Energy>  (736) 
51.524741215389952

>  <compound_id>  (736) 
25788

>  <target_id>  (736) 
1

>  <reference_id>  (736) 
66

>  <inspiration_ids>  (736) 
[66, 39]

>  <energy_score>  (736) 
8.869171308960858

>  <distance_score>  (736) 
14.546864466184335

>  <path>  (736) 
/opt/xchem-fragalysis-2/maxwin/BulkDock/SCRATCH/511016/C25788-P66/C25788-P66.minimised.mol

>  <scratch_subdir>  (736) 
/opt/xchem-fragalysis-2/maxwin/BulkDock/SCRATCH/511016/C25788-P66

>  <fragmenstein_runtime>  (736) 
45.993281841278076

>  <fragmenstein_outcome>  (736) 
too moved

>  <fragmenstein_mode>  (736) 
expansion

>  <fragmenstein_error>  (736) 


$$$$
C25788-P39
     RDKit          3D

 43 45  0  0  0  0  0  0  0  0999 V2000
   -2.3882   -7.3003   25.1460 C   0  0  0  0  0  0  0  0  0  0  0  0
   -3.2633   -8.4213   24.6889 C   0  0  0  0  0  0  0  0  0  0  0  0
   -3.6847   -8.7099   23.4112 C   0  0  0  0  0  0  0  0  0  0  0  0
   -4.6154   -9.8006   23.4090 C   0  0  0  0  0  0  0  0  0  0  0  0
   -4.8502  -10.3792   24.6630 C   0  0  0  0  0  0  0  0  0  0  0  0
   -5.8353  -11.4932   24.9892 C   0  0  0  0  0  0  0  0  0  0  0  0
   -6.6850  -11.6852   24.1690 O   0  0  0  0  0  0  0  0  0  0  0  0
   -5.6186  -12.1073   26.2814 N   0  0  0  0  0  0  0  0  0  0  0  0
   -6.4376  -13.1021   27.0469 C   0  0  0  0  0  0  0  0  0  0  0  0
   -6.0426  -13.0218   28.5223 C   0  0  0  0  0  0  0  0  0  0  0  0
   -6.4037  -14.6015   26.5650 C   0  0  0  0  0  0  0  0  0  0  0  0
   -7.3212  -15.5528   27.2675 N   0  0  0  0  0  0  0  0  0  0  0  0
   -7.1801  -16.9771   27.5621 C   0  0  0  0  0  0  0  0  0  0  0  0
   -6.2580  -17.7232   27.3846 O   0  0  0  0  0  0  0  0  0  0  0  0
   -8.4275  -17.7020   28.1474 C   0  0  0  0  0  0  0  0  0  0  0  0
   -9.6292  -17.0968   28.4654 C   0  0  0  0  0  0  0  0  0  0  0  0
  -10.6353  -17.9864   29.1686 C   0  0  0  0  0  0  0  0  0  0  0  0
  -10.6921  -20.0377   29.4103 C   0  0  0  0  0  0  0  0  0  0  0  0
  -11.5404  -21.0837   29.7610 N   0  0  0  0  0  0  0  0  0  0  0  0
  -11.3441  -22.1907   28.9760 C   0  0  0  0  0  0  0  0  0  0  0  0
  -10.2115  -21.9820   28.2194 C   0  0  0  0  0  0  0  0  0  0  0  0
   -9.8371  -20.5685   28.3049 C   0  0  0  0  0  0  0  0  0  0  0  0
   -8.4346  -19.2582   28.3008 C   0  0  0  0  0  0  0  0  0  0  0  0
   -3.9064   -9.5415   25.8306 S   0  0  0  0  0  0  0  0  0  0  0  0
   -3.0012   -6.4572   25.4807 H   0  0  0  0  0  0  0  0  0  0  0  0
   -1.7473   -6.9523   24.3291 H   0  0  0  0  0  0  0  0  0  0  0  0
   -1.7382   -7.6044   25.9728 H   0  0  0  0  0  0  0  0  0  0  0  0
   -3.4024   -8.1404   22.5324 H   0  0  0  0  0  0  0  0  0  0  0  0
   -5.1276  -10.1504   22.5180 H   0  0  0  0  0  0  0  0  0  0  0  0
   -4.8464  -11.6393   26.7443 H   0  0  0  0  0  0  0  0  0  0  0  0
   -7.4737  -12.7561   26.9447 H   0  0  0  0  0  0  0  0  0  0  0  0
   -5.0071  -13.3483   28.6689 H   0  0  0  0  0  0  0  0  0  0  0  0
   -6.1184  -11.9919   28.8885 H   0  0  0  0  0  0  0  0  0  0  0  0
   -6.6914  -13.6449   29.1457 H   0  0  0  0  0  0  0  0  0  0  0  0
   -5.3883  -15.0053   26.6460 H   0  0  0  0  0  0  0  0  0  0  0  0
   -6.6810  -14.6438   25.5059 H   0  0  0  0  0  0  0  0  0  0  0  0
   -8.2647  -15.2656   27.4734 H   0  0  0  0  0  0  0  0  0  0  0  0
   -9.8678  -16.0508   28.3419 H   0  0  0  0  0  0  0  0  0  0  0  0
  -11.6224  -17.4598   29.2409 H   0  0  0  0  0  0  0  0  0  0  0  0
  -12.0751  -21.1216   30.6116 H   0  0  0  0  0  0  0  0  0  0  0  0
  -11.8885  -23.1029   29.1838 H   0  0  0  0  0  0  0  0  0  0  0  0
   -9.6288  -22.8097   27.8334 H   0  0  0  0  0  0  0  0  0  0  0  0
   -7.4277  -19.6463   28.0418 H   0  0  0  0  0  0  0  0  0  0  0  0
  1  2  1  0
  2  3  2  0
  3  4  1  0
  4  5  2  0
  5  6  1  0
  6  7  2  0
  6  8  1  0
  8  9  1  0
  9 10  1  0
  9 11  1  0
 11 12  1  0
 12 13  1  0
 13 14  2  0
 13 15  1  0
 15 16  2  0
 16 17  1  0
 17 18  2  0
 18 19  1  0
 19 20  1  0
 20 21  2  0
 21 22  1  0
 22 23  2  0
  5 24  1  0
 24  2  1  0
 23 15  1  0
 22 18  1  0
  1 25  1  0
  1 26  1  0
  1 27  1  0
  3 28  1  0
  4 29  1  0
  8 30  1  0
  9 31  1  0
 10 32  1  0
 10 33  1  0
 10 34  1  0
 11 35  1  0
 11 36  1  0
 12 37  1  0
 16 38  1  0
 17 39  1  0
 19 40  1  0
 20 41  1  0
 21 42  1  0
 23 43  1  0
M  END
>  <Energy>  (737) 
328.54839616781481

>  <compound_id>  (737) 
25788

>  <target_id>  (737) 
1

>  <reference_id>  (737) 
39

>  <inspiration_ids>  (737) 
[66, 39]

>  <energy_score>  (737) 
285.89282626139016

>  <distance_score>  (737) 
15.428555795162957

>  <path>  (737) 
/opt/xchem-fragalysis-2/maxwin/BulkDock/SCRATCH/511016/C25788-P39/C25788-P39.minimised.mol

>  <scratch_subdir>  (737) 
/opt/xchem-fragalysis-2/maxwin/BulkDock/SCRATCH/511016/C25788-P39

>  <fragmenstein_runtime>  (737) 
43.30944752693176

>  <fragmenstein_outcome>  (737) 
too moved

>  <fragmenstein_mode>  (737) 
expansion

>  <fragmenstein_error>  (737) 


$$$$
C25789-P66
     RDKit          3D

 45 47  0  0  0  0  0  0  0  0999 V2000
   -0.3022   -7.0949   17.7767 C   0  0  0  0  0  0  0  0  0  0  0  0
   -1.2801   -7.7323   18.6972 C   0  0  0  0  0  0  0  0  0  0  0  0
   -2.3244   -8.5887   18.3971 C   0  0  0  0  0  0  0  0  0  0  0  0
   -3.0715   -9.0762   19.5593 C   0  0  0  0  0  0  0  0  0  0  0  0
   -4.2394  -10.2044   19.4948 C   0  0  0  0  0  0  0  0  0  0  0  0
   -5.1001   -9.9758   18.2313 C   0  0  0  0  0  0  0  0  0  0  0  0
   -3.4799  -11.5439   19.3472 C   0  0  0  0  0  0  0  0  0  0  0  0
   -5.3268  -10.2317   20.7415 C   0  0  0  0  0  0  0  0  0  0  0  0
   -5.3565   -9.2687   21.4633 O   0  0  0  0  0  0  0  0  0  0  0  0
   -6.1786  -11.4605   20.7273 N   0  0  0  0  0  0  0  0  0  0  0  0
   -7.2620  -11.9162   21.6634 C   0  0  0  0  0  0  0  0  0  0  0  0
   -7.1034  -13.3362   22.3769 C   0  0  0  0  0  0  0  0  0  0  0  0
   -8.3532  -13.9392   23.0282 C   0  0  0  0  0  0  0  0  0  0  0  0
   -8.5992  -13.8162   24.4060 C   0  0  0  0  0  0  0  0  0  0  0  0
   -9.8123  -14.2231   24.9883 C   0  0  0  0  0  0  0  0  0  0  0  0
  -10.7977  -14.7156   24.1284 C   0  0  0  0  0  0  0  0  0  0  0  0
  -12.1337  -14.9603   24.3470 N   0  0  0  0  0  0  0  0  0  0  0  0
  -12.7190  -15.4652   23.2176 C   0  0  0  0  0  0  0  0  0  0  0  0
  -11.7714  -15.4503   22.2194 C   0  0  0  0  0  0  0  0  0  0  0  0
  -10.5628  -14.9492   22.7766 C   0  0  0  0  0  0  0  0  0  0  0  0
   -9.3113  -14.5934   22.2320 C   0  0  0  0  0  0  0  0  0  0  0  0
   -2.4997   -8.5126   20.6927 C   0  0  0  0  0  0  0  0  0  0  0  0
   -1.1633   -7.4735   20.3780 S   0  0  0  0  0  0  0  0  0  0  0  0
   -0.5289   -7.3408   16.7339 H   0  0  0  0  0  0  0  0  0  0  0  0
    0.7144   -7.4427   17.9885 H   0  0  0  0  0  0  0  0  0  0  0  0
   -0.3264   -6.0046   17.8751 H   0  0  0  0  0  0  0  0  0  0  0  0
   -2.5301   -8.9007   17.3815 H   0  0  0  0  0  0  0  0  0  0  0  0
   -5.9077  -10.7115   18.1509 H   0  0  0  0  0  0  0  0  0  0  0  0
   -5.5642   -8.9829   18.2548 H   0  0  0  0  0  0  0  0  0  0  0  0
   -4.5118  -10.0487   17.3108 H   0  0  0  0  0  0  0  0  0  0  0  0
   -2.8217  -11.5281   18.4693 H   0  0  0  0  0  0  0  0  0  0  0  0
   -2.8370  -11.7204   20.2143 H   0  0  0  0  0  0  0  0  0  0  0  0
   -4.1319  -12.4111   19.2245 H   0  0  0  0  0  0  0  0  0  0  0  0
   -5.8232  -12.1011   20.0380 H   0  0  0  0  0  0  0  0  0  0  0  0
   -8.1726  -11.9324   21.0546 H   0  0  0  0  0  0  0  0  0  0  0  0
   -7.3854  -11.1402   22.4265 H   0  0  0  0  0  0  0  0  0  0  0  0
   -6.3314  -13.2553   23.1455 H   0  0  0  0  0  0  0  0  0  0  0  0
   -6.7212  -14.0531   21.6389 H   0  0  0  0  0  0  0  0  0  0  0  0
   -7.8597  -13.3318   25.0433 H   0  0  0  0  0  0  0  0  0  0  0  0
  -10.0049  -14.0467   26.0418 H   0  0  0  0  0  0  0  0  0  0  0  0
  -12.6132  -14.7672   25.2163 H   0  0  0  0  0  0  0  0  0  0  0  0
  -13.7666  -15.7391   23.2061 H   0  0  0  0  0  0  0  0  0  0  0  0
  -11.9408  -15.7234   21.1848 H   0  0  0  0  0  0  0  0  0  0  0  0
   -9.1407  -14.7219   21.1659 H   0  0  0  0  0  0  0  0  0  0  0  0
   -2.7945   -8.6649   21.7223 H   0  0  0  0  0  0  0  0  0  0  0  0
  1  2  1  0
  2  3  2  0
  3  4  1  0
  4  5  1  0
  5  6  1  0
  5  7  1  0
  5  8  1  0
  8  9  2  0
  8 10  1  0
 10 11  1  0
 11 12  1  0
 12 13  1  0
 13 14  2  0
 14 15  1  0
 15 16  2  0
 16 17  1  0
 17 18  1  0
 18 19  2  0
 19 20  1  0
 20 21  2  0
  4 22  2  0
 22 23  1  0
 23  2  1  0
 21 13  1  0
 20 16  1  0
  1 24  1  0
  1 25  1  0
  1 26  1  0
  3 27  1  0
  6 28  1  0
  6 29  1  0
  6 30  1  0
  7 31  1  0
  7 32  1  0
  7 33  1  0
 10 34  1  0
 11 35  1  0
 11 36  1  0
 12 37  1  0
 12 38  1  0
 14 39  1  0
 15 40  1  0
 17 41  1  0
 18 42  1  0
 19 43  1  0
 21 44  1  0
 22 45  1  0
M  END
>  <Energy>  (738) 
77.418967057030073

>  <compound_id>  (738) 
25789

>  <target_id>  (738) 
1

>  <reference_id>  (738) 
66

>  <inspiration_ids>  (738) 
[66, 39]

>  <energy_score>  (738) 
-13.235405972644628

>  <distance_score>  (738) 
15.159298743214979

>  <path>  (738) 
/opt/xchem-fragalysis-2/maxwin/BulkDock/SCRATCH/511016/C25789-P66/C25789-P66.minimised.mol

>  <scratch_subdir>  (738) 
/opt/xchem-fragalysis-2/maxwin/BulkDock/SCRATCH/511016/C25789-P66

>  <fragmenstein_runtime>  (738) 
64.63937449455261

>  <fragmenstein_outcome>  (738) 
too moved

>  <fragmenstein_mode>  (738) 
expansion

>  <fragmenstein_error>  (738) 


$$$$
C25789-P39
     RDKit          3D

 45 47  0  0  0  0  0  0  0  0999 V2000
    2.9223  -13.4329   15.8884 C   0  0  0  0  0  0  0  0  0  0  0  0
    1.5205  -13.8439   16.1779 C   0  0  0  0  0  0  0  0  0  0  0  0
    1.0688  -14.9761   16.8306 C   0  0  0  0  0  0  0  0  0  0  0  0
   -0.3873  -15.0816   16.9518 C   0  0  0  0  0  0  0  0  0  0  0  0
   -1.2191  -16.3851   17.4801 C   0  0  0  0  0  0  0  0  0  0  0  0
   -1.7750  -17.0817   16.2157 C   0  0  0  0  0  0  0  0  0  0  0  0
   -0.2538  -17.3509   18.1938 C   0  0  0  0  0  0  0  0  0  0  0  0
   -2.4822  -16.1117   18.4911 C   0  0  0  0  0  0  0  0  0  0  0  0
   -2.7856  -14.9712   18.7206 O   0  0  0  0  0  0  0  0  0  0  0  0
   -3.0856  -17.3870   18.9658 N   0  0  0  0  0  0  0  0  0  0  0  0
   -4.3063  -17.6450   19.7883 C   0  0  0  0  0  0  0  0  0  0  0  0
   -4.2609  -18.9499   20.6814 C   0  0  0  0  0  0  0  0  0  0  0  0
   -5.5241  -19.6550   21.1823 C   0  0  0  0  0  0  0  0  0  0  0  0
   -5.3996  -20.9737   21.6706 C   0  0  0  0  0  0  0  0  0  0  0  0
   -6.5066  -21.7901   21.9477 C   0  0  0  0  0  0  0  0  0  0  0  0
   -7.7663  -21.2368   21.7315 C   0  0  0  0  0  0  0  0  0  0  0  0
   -9.0159  -21.8064   21.8042 N   0  0  0  0  0  0  0  0  0  0  0  0
   -9.9820  -20.8608   21.5994 C   0  0  0  0  0  0  0  0  0  0  0  0
   -9.3467  -19.6739   21.3232 C   0  0  0  0  0  0  0  0  0  0  0  0
   -7.9444  -19.9019   21.3731 C   0  0  0  0  0  0  0  0  0  0  0  0
   -6.8081  -19.0981   21.1128 C   0  0  0  0  0  0  0  0  0  0  0  0
   -0.9334  -13.9314   16.3953 C   0  0  0  0  0  0  0  0  0  0  0  0
    0.2111  -12.9032   15.6256 S   0  0  0  0  0  0  0  0  0  0  0  0
    3.1161  -12.4191   16.2539 H   0  0  0  0  0  0  0  0  0  0  0  0
    3.6348  -14.1047   16.3786 H   0  0  0  0  0  0  0  0  0  0  0  0
    3.1191  -13.4606   14.8118 H   0  0  0  0  0  0  0  0  0  0  0  0
    1.7611  -15.7274   17.1889 H   0  0  0  0  0  0  0  0  0  0  0  0
   -2.2444  -18.0447   16.4399 H   0  0  0  0  0  0  0  0  0  0  0  0
   -2.5347  -16.4574   15.7310 H   0  0  0  0  0  0  0  0  0  0  0  0
   -0.9805  -17.2678   15.4834 H   0  0  0  0  0  0  0  0  0  0  0  0
    0.6335  -17.5691   17.5918 H   0  0  0  0  0  0  0  0  0  0  0  0
    0.0558  -16.9175   19.1485 H   0  0  0  0  0  0  0  0  0  0  0  0
   -0.6977  -18.3251   18.4177 H   0  0  0  0  0  0  0  0  0  0  0  0
   -2.6280  -18.1608   18.5080 H   0  0  0  0  0  0  0  0  0  0  0  0
   -4.4964  -16.7607   20.4049 H   0  0  0  0  0  0  0  0  0  0  0  0
   -5.1243  -17.7277   19.0647 H   0  0  0  0  0  0  0  0  0  0  0  0
   -3.6227  -18.7559   21.5419 H   0  0  0  0  0  0  0  0  0  0  0  0
   -3.7242  -19.6963   20.0778 H   0  0  0  0  0  0  0  0  0  0  0  0
   -4.4079  -21.4154   21.7675 H   0  0  0  0  0  0  0  0  0  0  0  0
   -6.3823  -22.8225   22.2570 H   0  0  0  0  0  0  0  0  0  0  0  0
   -9.2018  -22.7958   21.9352 H   0  0  0  0  0  0  0  0  0  0  0  0
  -11.0310  -21.1209   21.6395 H   0  0  0  0  0  0  0  0  0  0  0  0
   -9.8419  -18.7445   21.0787 H   0  0  0  0  0  0  0  0  0  0  0  0
   -6.9569  -18.0754   20.7796 H   0  0  0  0  0  0  0  0  0  0  0  0
   -1.9840  -13.6803   16.3257 H   0  0  0  0  0  0  0  0  0  0  0  0
  1  2  1  0
  2  3  2  0
  3  4  1  0
  4  5  1  0
  5  6  1  0
  5  7  1  0
  5  8  1  0
  8  9  2  0
  8 10  1  0
 10 11  1  0
 11 12  1  0
 12 13  1  0
 13 14  2  0
 14 15  1  0
 15 16  2  0
 16 17  1  0
 17 18  1  0
 18 19  2  0
 19 20  1  0
 20 21  2  0
  4 22  2  0
 22 23  1  0
 23  2  1  0
 21 13  1  0
 20 16  1  0
  1 24  1  0
  1 25  1  0
  1 26  1  0
  3 27  1  0
  6 28  1  0
  6 29  1  0
  6 30  1  0
  7 31  1  0
  7 32  1  0
  7 33  1  0
 10 34  1  0
 11 35  1  0
 11 36  1  0
 12 37  1  0
 12 38  1  0
 14 39  1  0
 15 40  1  0
 17 41  1  0
 18 42  1  0
 19 43  1  0
 21 44  1  0
 22 45  1  0
M  END
>  <Energy>  (739) 
77.369641295485749

>  <compound_id>  (739) 
25789

>  <target_id>  (739) 
1

>  <reference_id>  (739) 
39

>  <inspiration_ids>  (739) 
[66, 39]

>  <energy_score>  (739) 
-13.284731734185925

>  <distance_score>  (739) 
15.056028328910822

>  <path>  (739) 
/opt/xchem-fragalysis-2/maxwin/BulkDock/SCRATCH/511016/C25789-P39/C25789-P39.minimised.mol

>  <scratch_subdir>  (739) 
/opt/xchem-fragalysis-2/maxwin/BulkDock/SCRATCH/511016/C25789-P39

>  <fragmenstein_runtime>  (739) 
35.431527853012085

>  <fragmenstein_outcome>  (739) 
too moved

>  <fragmenstein_mode>  (739) 
expansion

>  <fragmenstein_error>  (739) 


$$$$
C25790-P66
     RDKit          3D

 44 46  0  0  0  0  0  0  0  0999 V2000
    7.9942  -11.9008   25.2900 C   0  0  0  0  0  0  0  0  0  0  0  0
    6.6946  -11.4917   24.6931 C   0  0  0  0  0  0  0  0  0  0  0  0
    6.4235  -10.1673   24.4233 C   0  0  0  0  0  0  0  0  0  0  0  0
    5.1053  -10.2599   23.1432 C   0  0  0  0  0  0  0  0  0  0  0  0
    4.0754  -11.5191   22.6567 C   0  0  0  0  0  0  0  0  0  0  0  0
    2.3488  -12.1038   23.5933 C   0  0  0  0  0  0  0  0  0  0  0  0
    1.1955  -13.7198   23.7123 N   0  0  0  0  0  0  0  0  0  0  0  0
   -0.5520  -14.0219   24.6631 C   0  0  0  0  0  0  0  0  0  0  0  0
   -1.0682  -13.2643   25.3691 O   0  0  0  0  0  0  0  0  0  0  0  0
   -1.5772  -15.3689   24.4027 N   0  0  0  0  0  0  0  0  0  0  0  0
   -3.0415  -15.8195   25.0296 C   0  0  0  0  0  0  0  0  0  0  0  0
   -3.2084  -17.1335   25.6094 C   0  0  0  0  0  0  0  0  0  0  0  0
   -4.3607  -17.6654   26.2234 C   0  0  0  0  0  0  0  0  0  0  0  0
   -5.4488  -16.8239   26.2936 C   0  0  0  0  0  0  0  0  0  0  0  0
   -6.6832  -17.0301   26.8643 N   0  0  0  0  0  0  0  0  0  0  0  0
   -7.4743  -15.9369   26.6597 C   0  0  0  0  0  0  0  0  0  0  0  0
   -6.7010  -14.9835   26.0294 C   0  0  0  0  0  0  0  0  0  0  0  0
   -5.3957  -15.5204   25.8019 C   0  0  0  0  0  0  0  0  0  0  0  0
   -4.1679  -15.0056   25.2278 C   0  0  0  0  0  0  0  0  0  0  0  0
    3.1103  -14.0970   24.2397 C   0  0  0  0  0  0  0  0  0  0  0  0
    3.8882  -14.2588   25.7684 C   0  0  0  0  0  0  0  0  0  0  0  0
    3.7214  -15.2216   23.5357 C   0  0  0  0  0  0  0  0  0  0  0  0
    6.2879  -11.0384   23.1264 S   0  0  0  0  0  0  0  0  0  0  0  0
    7.8083  -12.5256   26.1690 H   0  0  0  0  0  0  0  0  0  0  0  0
    8.5866  -11.0392   25.6165 H   0  0  0  0  0  0  0  0  0  0  0  0
    8.5980  -12.4779   24.5839 H   0  0  0  0  0  0  0  0  0  0  0  0
    6.6991   -9.2296   24.9291 H   0  0  0  0  0  0  0  0  0  0  0  0
    4.5228   -9.3805   23.3049 H   0  0  0  0  0  0  0  0  0  0  0  0
    2.8723  -12.7107   22.8613 H   0  0  0  0  0  0  0  0  0  0  0  0
    2.2369  -11.8767   24.5787 H   0  0  0  0  0  0  0  0  0  0  0  0
   -1.1555  -15.9033   23.7670 H   0  0  0  0  0  0  0  0  0  0  0  0
   -2.3683  -17.8144   25.6685 H   0  0  0  0  0  0  0  0  0  0  0  0
   -4.3666  -18.6664   26.6400 H   0  0  0  0  0  0  0  0  0  0  0  0
   -6.9488  -17.8635   27.3702 H   0  0  0  0  0  0  0  0  0  0  0  0
   -8.4964  -15.9088   27.0115 H   0  0  0  0  0  0  0  0  0  0  0  0
   -7.0299  -13.9869   25.7644 H   0  0  0  0  0  0  0  0  0  0  0  0
   -4.1718  -13.9655   24.9253 H   0  0  0  0  0  0  0  0  0  0  0  0
    3.6086  -13.2039   24.1815 H   0  0  0  0  0  0  0  0  0  0  0  0
    3.3160  -14.0688   26.6826 H   0  0  0  0  0  0  0  0  0  0  0  0
    4.8219  -13.7003   25.8007 H   0  0  0  0  0  0  0  0  0  0  0  0
    4.2560  -15.2438   25.8905 H   0  0  0  0  0  0  0  0  0  0  0  0
    3.6339  -16.3019   23.5374 H   0  0  0  0  0  0  0  0  0  0  0  0
    4.7445  -15.2766   23.8873 H   0  0  0  0  0  0  0  0  0  0  0  0
    3.3794  -14.8848   22.5885 H   0  0  0  0  0  0  0  0  0  0  0  0
  1  2  1  0
  2  3  2  0
  3  4  1  0
  4  5  2  0
  5  6  1  0
  6  7  1  0
  7  8  1  0
  8  9  2  0
  8 10  1  0
 10 11  1  0
 11 12  2  0
 12 13  1  0
 13 14  2  0
 14 15  1  0
 15 16  1  0
 16 17  2  0
 17 18  1  0
 18 19  2  0
  7 20  1  0
 20 21  1  0
 20 22  1  0
  5 23  1  0
 23  2  1  0
 19 11  1  0
 18 14  1  0
  1 24  1  0
  1 25  1  0
  1 26  1  0
  3 27  1  0
  4 28  1  0
  6 29  1  0
  6 30  1  0
 10 31  1  0
 12 32  1  0
 13 33  1  0
 15 34  1  0
 16 35  1  0
 17 36  1  0
 19 37  1  0
 20 38  1  0
 21 39  1  0
 21 40  1  0
 21 41  1  0
 22 42  1  0
 22 43  1  0
 22 44  1  0
M  END
>  <Energy>  (740) 
1072.2523867818868

>  <compound_id>  (740) 
25790

>  <target_id>  (740) 
1

>  <reference_id>  (740) 
66

>  <inspiration_ids>  (740) 
[66, 39]

>  <energy_score>  (740) 
1049.193217212748

>  <distance_score>  (740) 
13.496470729329136

>  <path>  (740) 
/opt/xchem-fragalysis-2/maxwin/BulkDock/SCRATCH/511016/C25790-P66/C25790-P66.minimised.mol

>  <scratch_subdir>  (740) 
/opt/xchem-fragalysis-2/maxwin/BulkDock/SCRATCH/511016/C25790-P66

>  <fragmenstein_runtime>  (740) 
31.23151731491089

>  <fragmenstein_outcome>  (740) 
too moved

>  <fragmenstein_mode>  (740) 
expansion

>  <fragmenstein_error>  (740) 


$$$$
C25790-P39
     RDKit          3D

 44 46  0  0  0  0  0  0  0  0999 V2000
    1.0476  -23.7341   26.7251 C   0  0  0  0  0  0  0  0  0  0  0  0
    0.0425  -24.6409   27.4349 C   0  0  0  0  0  0  0  0  0  0  0  0
   -1.2026  -24.3136   27.9341 C   0  0  0  0  0  0  0  0  0  0  0  0
   -1.9238  -25.4499   28.5199 C   0  0  0  0  0  0  0  0  0  0  0  0
   -1.2517  -26.6734   28.4928 C   0  0  0  0  0  0  0  0  0  0  0  0
   -1.6508  -28.3345   28.9279 C   0  0  0  0  0  0  0  0  0  0  0  0
   -2.9477  -28.6874   29.9596 N   0  0  0  0  0  0  0  0  0  0  0  0
   -4.3965  -28.7417   29.7398 C   0  0  0  0  0  0  0  0  0  0  0  0
   -5.2579  -28.6016   28.3961 O   0  0  0  0  0  0  0  0  0  0  0  0
   -5.2013  -28.7896   30.5516 N   0  0  0  0  0  0  0  0  0  0  0  0
   -7.1225  -28.6286   30.8595 C   0  0  0  0  0  0  0  0  0  0  0  0
   -7.6190  -28.1079   31.9539 C   0  0  0  0  0  0  0  0  0  0  0  0
   -8.3972  -26.4879   32.0882 C   0  0  0  0  0  0  0  0  0  0  0  0
   -9.3807  -25.9876   31.2336 C   0  0  0  0  0  0  0  0  0  0  0  0
  -10.2885  -24.9815   31.1744 N   0  0  0  0  0  0  0  0  0  0  0  0
  -11.0986  -25.1846   30.0734 C   0  0  0  0  0  0  0  0  0  0  0  0
  -10.6974  -26.3510   29.4481 C   0  0  0  0  0  0  0  0  0  0  0  0
   -9.5789  -26.8167   30.1667 C   0  0  0  0  0  0  0  0  0  0  0  0
   -8.6577  -28.0438   30.3463 C   0  0  0  0  0  0  0  0  0  0  0  0
   -2.3430  -30.0903   29.8621 C   0  0  0  0  0  0  0  0  0  0  0  0
   -1.1330  -30.4000   30.7734 C   0  0  0  0  0  0  0  0  0  0  0  0
   -2.3906  -30.9154   28.5560 C   0  0  0  0  0  0  0  0  0  0  0  0
    0.3344  -26.3326   27.7038 S   0  0  0  0  0  0  0  0  0  0  0  0
    0.4971  -23.0792   26.0472 H   0  0  0  0  0  0  0  0  0  0  0  0
    1.7614  -24.3195   26.1381 H   0  0  0  0  0  0  0  0  0  0  0  0
    1.5942  -23.1443   27.4642 H   0  0  0  0  0  0  0  0  0  0  0  0
   -1.6255  -23.3179   27.8779 H   0  0  0  0  0  0  0  0  0  0  0  0
   -2.9238  -25.3638   28.9310 H   0  0  0  0  0  0  0  0  0  0  0  0
   -0.6852  -28.6355   29.3366 H   0  0  0  0  0  0  0  0  0  0  0  0
   -1.9067  -28.6973   27.9258 H   0  0  0  0  0  0  0  0  0  0  0  0
   -5.5549  -28.9200   31.4895 H   0  0  0  0  0  0  0  0  0  0  0  0
   -8.1614  -29.0162   32.3120 H   0  0  0  0  0  0  0  0  0  0  0  0
   -8.2322  -25.9506   33.0244 H   0  0  0  0  0  0  0  0  0  0  0  0
  -10.4030  -24.2452   31.8579 H   0  0  0  0  0  0  0  0  0  0  0  0
  -11.9149  -24.5059   29.8654 H   0  0  0  0  0  0  0  0  0  0  0  0
  -11.1674  -26.8064   28.5880 H   0  0  0  0  0  0  0  0  0  0  0  0
   -9.4544  -28.3860   31.1122 H   0  0  0  0  0  0  0  0  0  0  0  0
   -3.1227  -30.6265   30.4330 H   0  0  0  0  0  0  0  0  0  0  0  0
   -1.1055  -29.7254   31.6352 H   0  0  0  0  0  0  0  0  0  0  0  0
   -0.1761  -30.3410   30.2455 H   0  0  0  0  0  0  0  0  0  0  0  0
   -1.2039  -31.4265   31.1528 H   0  0  0  0  0  0  0  0  0  0  0  0
   -1.4983  -30.7684   27.9385 H   0  0  0  0  0  0  0  0  0  0  0  0
   -3.2772  -30.6776   27.9601 H   0  0  0  0  0  0  0  0  0  0  0  0
   -2.4247  -31.9856   28.7921 H   0  0  0  0  0  0  0  0  0  0  0  0
  1  2  1  0
  2  3  2  0
  3  4  1  0
  4  5  2  0
  5  6  1  0
  6  7  1  0
  7  8  1  0
  8  9  2  0
  8 10  1  0
 10 11  1  0
 11 12  2  0
 12 13  1  0
 13 14  2  0
 14 15  1  0
 15 16  1  0
 16 17  2  0
 17 18  1  0
 18 19  2  0
  7 20  1  0
 20 21  1  0
 20 22  1  0
  5 23  1  0
 23  2  1  0
 19 11  1  0
 18 14  1  0
  1 24  1  0
  1 25  1  0
  1 26  1  0
  3 27  1  0
  4 28  1  0
  6 29  1  0
  6 30  1  0
 10 31  1  0
 12 32  1  0
 13 33  1  0
 15 34  1  0
 16 35  1  0
 17 36  1  0
 19 37  1  0
 20 38  1  0
 21 39  1  0
 21 40  1  0
 21 41  1  0
 22 42  1  0
 22 43  1  0
 22 44  1  0
M  END
>  <Energy>  (741) 
636.21204282436133

>  <compound_id>  (741) 
25790

>  <target_id>  (741) 
1

>  <reference_id>  (741) 
39

>  <inspiration_ids>  (741) 
[66, 39]

>  <energy_score>  (741) 
613.1528732552484

>  <distance_score>  (741) 
19.54043564847694

>  <path>  (741) 
/opt/xchem-fragalysis-2/maxwin/BulkDock/SCRATCH/511016/C25790-P39/C25790-P39.minimised.mol

>  <scratch_subdir>  (741) 
/opt/xchem-fragalysis-2/maxwin/BulkDock/SCRATCH/511016/C25790-P39

>  <fragmenstein_runtime>  (741) 
48.96859812736511

>  <fragmenstein_outcome>  (741) 
too moved

>  <fragmenstein_mode>  (741) 
expansion

>  <fragmenstein_error>  (741) 


$$$$
C25791-P66
     RDKit          3D

 43 45  0  0  0  0  0  0  0  0999 V2000
    9.4543  -10.3166   22.8372 C   0  0  0  0  0  0  0  0  0  0  0  0
    8.8503  -10.1960   24.1943 C   0  0  0  0  0  0  0  0  0  0  0  0
    8.8080   -9.1001   25.0252 C   0  0  0  0  0  0  0  0  0  0  0  0
    8.0875   -9.3837   26.2293 C   0  0  0  0  0  0  0  0  0  0  0  0
    7.5759  -10.6824   26.3003 C   0  0  0  0  0  0  0  0  0  0  0  0
    6.6163  -11.2089   27.3406 C   0  0  0  0  0  0  0  0  0  0  0  0
    6.3458  -10.4466   28.2220 O   0  0  0  0  0  0  0  0  0  0  0  0
    6.1006  -12.5322   27.0456 N   0  0  0  0  0  0  0  0  0  0  0  0
    4.9164  -13.3822   27.7343 C   0  0  0  0  0  0  0  0  0  0  0  0
    3.6561  -14.8784   27.4927 C   0  0  0  0  0  0  0  0  0  0  0  0
    2.5848  -13.9610   26.9479 C   0  0  0  0  0  0  0  0  0  0  0  0
    2.8411  -16.4645   28.0169 N   0  0  0  0  0  0  0  0  0  0  0  0
    1.3972  -16.7389   28.6841 C   0  0  0  0  0  0  0  0  0  0  0  0
    0.5704  -15.9504   29.0620 O   0  0  0  0  0  0  0  0  0  0  0  0
    0.8327  -18.1873   28.8081 C   0  0  0  0  0  0  0  0  0  0  0  0
   -0.3750  -18.3899   28.0710 C   0  0  0  0  0  0  0  0  0  0  0  0
   -1.4418  -19.2662   28.3728 C   0  0  0  0  0  0  0  0  0  0  0  0
   -1.2980  -20.0308   29.5082 C   0  0  0  0  0  0  0  0  0  0  0  0
   -2.1755  -20.9301   30.0725 N   0  0  0  0  0  0  0  0  0  0  0  0
   -1.6262  -21.4466   31.2103 C   0  0  0  0  0  0  0  0  0  0  0  0
   -0.4000  -20.8370   31.3947 C   0  0  0  0  0  0  0  0  0  0  0  0
   -0.1659  -19.9229   30.3192 C   0  0  0  0  0  0  0  0  0  0  0  0
    0.8753  -18.9609   29.9889 C   0  0  0  0  0  0  0  0  0  0  0  0
    8.0851  -11.5508   24.9157 S   0  0  0  0  0  0  0  0  0  0  0  0
   10.2637  -11.0539   22.8372 H   0  0  0  0  0  0  0  0  0  0  0  0
    8.7016  -10.6228   22.1030 H   0  0  0  0  0  0  0  0  0  0  0  0
    9.8715   -9.3590   22.5083 H   0  0  0  0  0  0  0  0  0  0  0  0
    9.2522   -8.1417   24.7860 H   0  0  0  0  0  0  0  0  0  0  0  0
    7.9040   -8.6539   27.0110 H   0  0  0  0  0  0  0  0  0  0  0  0
    6.6155  -12.9199   26.2716 H   0  0  0  0  0  0  0  0  0  0  0  0
    4.5884  -12.5869   28.3930 H   0  0  0  0  0  0  0  0  0  0  0  0
    4.7477  -13.4057   26.6689 H   0  0  0  0  0  0  0  0  0  0  0  0
    4.1253  -15.3193   26.6161 H   0  0  0  0  0  0  0  0  0  0  0  0
    1.5433  -14.0383   26.6298 H   0  0  0  0  0  0  0  0  0  0  0  0
    2.6134  -13.1444   27.5665 H   0  0  0  0  0  0  0  0  0  0  0  0
    3.0199  -13.8549   25.9501 H   0  0  0  0  0  0  0  0  0  0  0  0
    3.2532  -17.3399   27.7392 H   0  0  0  0  0  0  0  0  0  0  0  0
   -0.5776  -17.7718   27.2166 H   0  0  0  0  0  0  0  0  0  0  0  0
   -2.3410  -19.2938   27.7661 H   0  0  0  0  0  0  0  0  0  0  0  0
   -3.0971  -21.1426   29.7143 H   0  0  0  0  0  0  0  0  0  0  0  0
   -2.1594  -22.1717   31.8104 H   0  0  0  0  0  0  0  0  0  0  0  0
    0.2604  -21.0134   32.2339 H   0  0  0  0  0  0  0  0  0  0  0  0
    1.6628  -18.7847   30.7172 H   0  0  0  0  0  0  0  0  0  0  0  0
  1  2  1  0
  2  3  2  0
  3  4  1  0
  4  5  2  0
  5  6  1  0
  6  7  2  0
  6  8  1  0
  8  9  1  0
  9 10  1  0
 10 11  1  0
 10 12  1  0
 12 13  1  0
 13 14  2  0
 13 15  1  0
 15 16  2  0
 16 17  1  0
 17 18  2  0
 18 19  1  0
 19 20  1  0
 20 21  2  0
 21 22  1  0
 22 23  2  0
  5 24  1  0
 24  2  1  0
 23 15  1  0
 22 18  1  0
  1 25  1  0
  1 26  1  0
  1 27  1  0
  3 28  1  0
  4 29  1  0
  8 30  1  0
  9 31  1  0
  9 32  1  0
 10 33  1  0
 11 34  1  0
 11 35  1  0
 11 36  1  0
 12 37  1  0
 16 38  1  0
 17 39  1  0
 19 40  1  0
 20 41  1  0
 21 42  1  0
 23 43  1  0
M  END
>  <Energy>  (742) 
300.88297660513615

>  <compound_id>  (742) 
25791

>  <target_id>  (742) 
1

>  <reference_id>  (742) 
66

>  <inspiration_ids>  (742) 
[66, 39]

>  <energy_score>  (742) 
249.93396976955216

>  <distance_score>  (742) 
13.926690338045642

>  <path>  (742) 
/opt/xchem-fragalysis-2/maxwin/BulkDock/SCRATCH/511016/C25791-P66/C25791-P66.minimised.mol

>  <scratch_subdir>  (742) 
/opt/xchem-fragalysis-2/maxwin/BulkDock/SCRATCH/511016/C25791-P66

>  <fragmenstein_runtime>  (742) 
47.60844564437866

>  <fragmenstein_outcome>  (742) 
too moved

>  <fragmenstein_mode>  (742) 
expansion

>  <fragmenstein_error>  (742) 


$$$$
C25791-P39
     RDKit          3D

 43 45  0  0  0  0  0  0  0  0999 V2000
    8.8023  -10.7788   24.4963 C   0  0  0  0  0  0  0  0  0  0  0  0
    7.8020  -11.0928   25.5527 C   0  0  0  0  0  0  0  0  0  0  0  0
    7.3190  -10.2978   26.5611 C   0  0  0  0  0  0  0  0  0  0  0  0
    6.3536  -11.0124   27.3510 C   0  0  0  0  0  0  0  0  0  0  0  0
    5.9944  -12.3013   26.8697 C   0  0  0  0  0  0  0  0  0  0  0  0
    5.0120  -13.2792   27.7186 C   0  0  0  0  0  0  0  0  0  0  0  0
    5.1219  -13.0368   28.8899 O   0  0  0  0  0  0  0  0  0  0  0  0
    4.0577  -14.5902   27.0018 N   0  0  0  0  0  0  0  0  0  0  0  0
    3.1024  -16.0057   27.8044 C   0  0  0  0  0  0  0  0  0  0  0  0
    1.3394  -16.4321   28.6758 C   0  0  0  0  0  0  0  0  0  0  0  0
    1.3268  -16.9668   30.3371 C   0  0  0  0  0  0  0  0  0  0  0  0
   -0.0708  -17.2142   28.5017 N   0  0  0  0  0  0  0  0  0  0  0  0
   -1.3172  -17.1018   29.2326 C   0  0  0  0  0  0  0  0  0  0  0  0
   -1.6489  -16.3457   30.0973 O   0  0  0  0  0  0  0  0  0  0  0  0
   -2.2901  -18.2118   28.8764 C   0  0  0  0  0  0  0  0  0  0  0  0
   -2.5071  -19.1395   29.9107 C   0  0  0  0  0  0  0  0  0  0  0  0
   -3.0296  -20.4151   29.6670 C   0  0  0  0  0  0  0  0  0  0  0  0
   -3.3470  -20.7304   28.3457 C   0  0  0  0  0  0  0  0  0  0  0  0
   -3.6803  -21.9392   27.7753 N   0  0  0  0  0  0  0  0  0  0  0  0
   -4.0315  -21.7698   26.4729 C   0  0  0  0  0  0  0  0  0  0  0  0
   -3.8406  -20.4408   26.1756 C   0  0  0  0  0  0  0  0  0  0  0  0
   -3.3149  -19.7854   27.3231 C   0  0  0  0  0  0  0  0  0  0  0  0
   -2.7661  -18.5012   27.5893 C   0  0  0  0  0  0  0  0  0  0  0  0
    7.1962  -12.6764   25.7255 S   0  0  0  0  0  0  0  0  0  0  0  0
    8.4293  -11.0668   23.5078 H   0  0  0  0  0  0  0  0  0  0  0  0
    9.0182   -9.7055   24.4712 H   0  0  0  0  0  0  0  0  0  0  0  0
    9.7423  -11.3081   24.6832 H   0  0  0  0  0  0  0  0  0  0  0  0
    7.6466   -9.2838   26.7539 H   0  0  0  0  0  0  0  0  0  0  0  0
    5.8831  -10.6020   28.2398 H   0  0  0  0  0  0  0  0  0  0  0  0
    4.0785  -14.5094   25.9902 H   0  0  0  0  0  0  0  0  0  0  0  0
    3.8984  -16.5939   28.2770 H   0  0  0  0  0  0  0  0  0  0  0  0
    3.1401  -16.8059   27.0251 H   0  0  0  0  0  0  0  0  0  0  0  0
    1.5541  -17.2207   27.9723 H   0  0  0  0  0  0  0  0  0  0  0  0
    0.7107  -16.3345   30.9834 H   0  0  0  0  0  0  0  0  0  0  0  0
    2.2780  -17.1489   30.8371 H   0  0  0  0  0  0  0  0  0  0  0  0
    0.7742  -17.9114   30.4564 H   0  0  0  0  0  0  0  0  0  0  0  0
   -0.1717  -17.9101   27.7885 H   0  0  0  0  0  0  0  0  0  0  0  0
   -2.1776  -18.8968   30.9217 H   0  0  0  0  0  0  0  0  0  0  0  0
   -3.1143  -21.1395   30.4706 H   0  0  0  0  0  0  0  0  0  0  0  0
   -3.6464  -22.8276   28.2528 H   0  0  0  0  0  0  0  0  0  0  0  0
   -4.3600  -22.6004   25.8608 H   0  0  0  0  0  0  0  0  0  0  0  0
   -4.0198  -20.0180   25.2010 H   0  0  0  0  0  0  0  0  0  0  0  0
   -2.6532  -17.7774   26.7924 H   0  0  0  0  0  0  0  0  0  0  0  0
  1  2  1  0
  2  3  2  0
  3  4  1  0
  4  5  2  0
  5  6  1  0
  6  7  2  0
  6  8  1  0
  8  9  1  0
  9 10  1  0
 10 11  1  0
 10 12  1  0
 12 13  1  0
 13 14  2  0
 13 15  1  0
 15 16  2  0
 16 17  1  0
 17 18  2  0
 18 19  1  0
 19 20  1  0
 20 21  2  0
 21 22  1  0
 22 23  2  0
  5 24  1  0
 24  2  1  0
 23 15  1  0
 22 18  1  0
  1 25  1  0
  1 26  1  0
  1 27  1  0
  3 28  1  0
  4 29  1  0
  8 30  1  0
  9 31  1  0
  9 32  1  0
 10 33  1  0
 11 34  1  0
 11 35  1  0
 11 36  1  0
 12 37  1  0
 16 38  1  0
 17 39  1  0
 19 40  1  0
 20 41  1  0
 21 42  1  0
 23 43  1  0
M  END
>  <Energy>  (743) 
342.30182616242899

>  <compound_id>  (743) 
25791

>  <target_id>  (743) 
1

>  <reference_id>  (743) 
39

>  <inspiration_ids>  (743) 
[66, 39]

>  <energy_score>  (743) 
291.3528193268377

>  <distance_score>  (743) 
13.821566308105849

>  <path>  (743) 
/opt/xchem-fragalysis-2/maxwin/BulkDock/SCRATCH/511016/C25791-P39/C25791-P39.minimised.mol

>  <scratch_subdir>  (743) 
/opt/xchem-fragalysis-2/maxwin/BulkDock/SCRATCH/511016/C25791-P39

>  <fragmenstein_runtime>  (743) 
35.89640831947327

>  <fragmenstein_outcome>  (743) 
too moved

>  <fragmenstein_mode>  (743) 
expansion

>  <fragmenstein_error>  (743) 


$$$$
C25793-P66
     RDKit          3D

 44 46  0  0  0  0  0  0  0  0999 V2000
    3.9012   -5.1260   21.2415 C   0  0  0  0  0  0  0  0  0  0  0  0
    2.6565   -5.7630   20.7300 C   0  0  0  0  0  0  0  0  0  0  0  0
    2.3348   -6.1162   19.4386 C   0  0  0  0  0  0  0  0  0  0  0  0
    1.0434   -6.7276   19.3668 C   0  0  0  0  0  0  0  0  0  0  0  0
    0.3853   -6.8039   20.5913 C   0  0  0  0  0  0  0  0  0  0  0  0
   -1.0754   -7.2655   20.8386 C   0  0  0  0  0  0  0  0  0  0  0  0
   -1.4156   -8.1310   22.1079 C   0  0  0  0  0  0  0  0  0  0  0  0
   -2.7973   -8.7582   22.3134 N   0  0  0  0  0  0  0  0  0  0  0  0
   -3.8808   -8.4901   23.3971 C   0  0  0  0  0  0  0  0  0  0  0  0
   -3.8981   -7.6820   24.2519 O   0  0  0  0  0  0  0  0  0  0  0  0
   -4.8682   -9.6156   23.0912 N   0  0  0  0  0  0  0  0  0  0  0  0
   -6.2098   -9.9646   23.7302 C   0  0  0  0  0  0  0  0  0  0  0  0
   -6.2642  -11.0859   24.8710 C   0  0  0  0  0  0  0  0  0  0  0  0
   -7.3196  -12.2407   24.9889 C   0  0  0  0  0  0  0  0  0  0  0  0
   -7.7783  -12.9573   23.8766 C   0  0  0  0  0  0  0  0  0  0  0  0
   -8.4606  -14.1958   23.9917 C   0  0  0  0  0  0  0  0  0  0  0  0
   -8.6459  -14.7457   25.2669 C   0  0  0  0  0  0  0  0  0  0  0  0
   -9.1485  -15.9654   25.6598 N   0  0  0  0  0  0  0  0  0  0  0  0
   -9.1021  -16.0859   27.0227 C   0  0  0  0  0  0  0  0  0  0  0  0
   -8.5682  -14.9193   27.5216 C   0  0  0  0  0  0  0  0  0  0  0  0
   -8.2601  -14.0659   26.4185 C   0  0  0  0  0  0  0  0  0  0  0  0
   -7.6289  -12.7936   26.2723 C   0  0  0  0  0  0  0  0  0  0  0  0
    1.3949   -6.1674   21.8250 S   0  0  0  0  0  0  0  0  0  0  0  0
    3.6790   -4.1675   21.7216 H   0  0  0  0  0  0  0  0  0  0  0  0
    4.6070   -4.9364   20.4256 H   0  0  0  0  0  0  0  0  0  0  0  0
    4.3991   -5.7756   21.9691 H   0  0  0  0  0  0  0  0  0  0  0  0
    2.9830   -5.9595   18.5853 H   0  0  0  0  0  0  0  0  0  0  0  0
    0.5932   -7.0755   18.4439 H   0  0  0  0  0  0  0  0  0  0  0  0
   -1.3945   -7.8401   19.9590 H   0  0  0  0  0  0  0  0  0  0  0  0
   -1.7076   -6.3685   20.8593 H   0  0  0  0  0  0  0  0  0  0  0  0
   -1.2232   -7.5330   23.0048 H   0  0  0  0  0  0  0  0  0  0  0  0
   -0.7281   -8.9828   22.1036 H   0  0  0  0  0  0  0  0  0  0  0  0
   -3.1260   -9.4692   21.6806 H   0  0  0  0  0  0  0  0  0  0  0  0
   -4.5976  -10.0754   22.2370 H   0  0  0  0  0  0  0  0  0  0  0  0
   -6.8533  -10.2632   22.8972 H   0  0  0  0  0  0  0  0  0  0  0  0
   -6.6021   -9.0297   24.1447 H   0  0  0  0  0  0  0  0  0  0  0  0
   -6.2841  -10.5413   25.8246 H   0  0  0  0  0  0  0  0  0  0  0  0
   -5.2813  -11.5532   24.8173 H   0  0  0  0  0  0  0  0  0  0  0  0
   -7.5411  -12.5967   22.8765 H   0  0  0  0  0  0  0  0  0  0  0  0
   -8.7586  -14.7325   23.0963 H   0  0  0  0  0  0  0  0  0  0  0  0
   -9.4606  -16.6800   25.0209 H   0  0  0  0  0  0  0  0  0  0  0  0
   -9.4384  -16.9811   27.5249 H   0  0  0  0  0  0  0  0  0  0  0  0
   -8.3832  -14.7047   28.5663 H   0  0  0  0  0  0  0  0  0  0  0  0
   -7.2664  -12.2939   27.1688 H   0  0  0  0  0  0  0  0  0  0  0  0
  1  2  1  0
  2  3  2  0
  3  4  1  0
  4  5  2  0
  5  6  1  0
  6  7  1  0
  7  8  1  0
  8  9  1  0
  9 10  2  0
  9 11  1  0
 11 12  1  0
 12 13  1  0
 13 14  1  0
 14 15  2  0
 15 16  1  0
 16 17  2  0
 17 18  1  0
 18 19  1  0
 19 20  2  0
 20 21  1  0
 21 22  2  0
  5 23  1  0
 23  2  1  0
 22 14  1  0
 21 17  1  0
  1 24  1  0
  1 25  1  0
  1 26  1  0
  3 27  1  0
  4 28  1  0
  6 29  1  0
  6 30  1  0
  7 31  1  0
  7 32  1  0
  8 33  1  0
 11 34  1  0
 12 35  1  0
 12 36  1  0
 13 37  1  0
 13 38  1  0
 15 39  1  0
 16 40  1  0
 18 41  1  0
 19 42  1  0
 20 43  1  0
 22 44  1  0
M  END
>  <Energy>  (744) 
2.9786863002911761

>  <compound_id>  (744) 
25793

>  <target_id>  (744) 
1

>  <reference_id>  (744) 
66

>  <inspiration_ids>  (744) 
[66, 39]

>  <energy_score>  (744) 
13.85241275774598

>  <distance_score>  (744) 
13.940607501406289

>  <path>  (744) 
/opt/xchem-fragalysis-2/maxwin/BulkDock/SCRATCH/511016/C25793-P66/C25793-P66.minimised.mol

>  <scratch_subdir>  (744) 
/opt/xchem-fragalysis-2/maxwin/BulkDock/SCRATCH/511016/C25793-P66

>  <fragmenstein_runtime>  (744) 
31.341690063476562

>  <fragmenstein_outcome>  (744) 
too moved

>  <fragmenstein_mode>  (744) 
expansion

>  <fragmenstein_error>  (744) 


$$$$
C25793-P39
     RDKit          3D

 44 46  0  0  0  0  0  0  0  0999 V2000
    8.8477  -12.1011   15.9758 C   0  0  0  0  0  0  0  0  0  0  0  0
    8.5682  -12.1253   17.4400 C   0  0  0  0  0  0  0  0  0  0  0  0
    9.4090  -11.7906   18.4770 C   0  0  0  0  0  0  0  0  0  0  0  0
    8.7754  -11.9486   19.7435 C   0  0  0  0  0  0  0  0  0  0  0  0
    7.4659  -12.4070   19.6497 C   0  0  0  0  0  0  0  0  0  0  0  0
    6.4466  -12.4237   20.7868 C   0  0  0  0  0  0  0  0  0  0  0  0
    5.2445  -13.8493   21.1657 C   0  0  0  0  0  0  0  0  0  0  0  0
    4.7939  -15.1700   22.8869 N   0  0  0  0  0  0  0  0  0  0  0  0
    3.6980  -15.4641   23.4543 C   0  0  0  0  0  0  0  0  0  0  0  0
    2.6323  -15.0490   23.2994 O   0  0  0  0  0  0  0  0  0  0  0  0
    4.2160  -16.6929   24.3525 N   0  0  0  0  0  0  0  0  0  0  0  0
    3.2005  -18.0008   25.3931 C   0  0  0  0  0  0  0  0  0  0  0  0
    2.0201  -19.3913   25.2759 C   0  0  0  0  0  0  0  0  0  0  0  0
    0.5757  -19.6944   25.8887 C   0  0  0  0  0  0  0  0  0  0  0  0
    0.1411  -19.2223   27.1403 C   0  0  0  0  0  0  0  0  0  0  0  0
   -1.1254  -19.5476   27.6949 C   0  0  0  0  0  0  0  0  0  0  0  0
   -1.9633  -20.4238   26.9927 C   0  0  0  0  0  0  0  0  0  0  0  0
   -3.2087  -20.9318   27.3086 N   0  0  0  0  0  0  0  0  0  0  0  0
   -3.6170  -21.8088   26.3374 C   0  0  0  0  0  0  0  0  0  0  0  0
   -2.6414  -21.8374   25.3637 C   0  0  0  0  0  0  0  0  0  0  0  0
   -1.5801  -20.9692   25.7691 C   0  0  0  0  0  0  0  0  0  0  0  0
   -0.3082  -20.5976   25.2257 C   0  0  0  0  0  0  0  0  0  0  0  0
    7.0350  -12.6360   18.0135 S   0  0  0  0  0  0  0  0  0  0  0  0
    9.6894  -11.4362   15.7537 H   0  0  0  0  0  0  0  0  0  0  0  0
    9.1048  -13.1048   15.6222 H   0  0  0  0  0  0  0  0  0  0  0  0
    7.9844  -11.7430   15.4056 H   0  0  0  0  0  0  0  0  0  0  0  0
   10.4276  -11.4516   18.3372 H   0  0  0  0  0  0  0  0  0  0  0  0
    9.2495  -11.7012   20.6860 H   0  0  0  0  0  0  0  0  0  0  0  0
    5.7234  -11.6748   20.4710 H   0  0  0  0  0  0  0  0  0  0  0  0
    6.9734  -11.9639   21.6371 H   0  0  0  0  0  0  0  0  0  0  0  0
    4.2676  -13.2437   21.0321 H   0  0  0  0  0  0  0  0  0  0  0  0
    5.5107  -14.1243   20.0846 H   0  0  0  0  0  0  0  0  0  0  0  0
    5.5263  -15.6694   23.3364 H   0  0  0  0  0  0  0  0  0  0  0  0
    5.2576  -16.7299   24.3345 H   0  0  0  0  0  0  0  0  0  0  0  0
    3.8492  -18.8481   25.5487 H   0  0  0  0  0  0  0  0  0  0  0  0
    3.0590  -17.5611   26.3941 H   0  0  0  0  0  0  0  0  0  0  0  0
    2.1661  -19.9130   24.3266 H   0  0  0  0  0  0  0  0  0  0  0  0
    2.5485  -20.1045   25.9432 H   0  0  0  0  0  0  0  0  0  0  0  0
    0.7964  -18.5741   27.7208 H   0  0  0  0  0  0  0  0  0  0  0  0
   -1.4172  -19.1432   28.6601 H   0  0  0  0  0  0  0  0  0  0  0  0
   -3.7137  -20.7151   28.1585 H   0  0  0  0  0  0  0  0  0  0  0  0
   -4.5532  -22.3420   26.4233 H   0  0  0  0  0  0  0  0  0  0  0  0
   -2.6695  -22.4363   24.4624 H   0  0  0  0  0  0  0  0  0  0  0  0
   -0.0041  -21.0293   24.2725 H   0  0  0  0  0  0  0  0  0  0  0  0
  1  2  1  0
  2  3  2  0
  3  4  1  0
  4  5  2  0
  5  6  1  0
  6  7  1  0
  7  8  1  0
  8  9  1  0
  9 10  2  0
  9 11  1  0
 11 12  1  0
 12 13  1  0
 13 14  1  0
 14 15  2  0
 15 16  1  0
 16 17  2  0
 17 18  1  0
 18 19  1  0
 19 20  2  0
 20 21  1  0
 21 22  2  0
  5 23  1  0
 23  2  1  0
 22 14  1  0
 21 17  1  0
  1 24  1  0
  1 25  1  0
  1 26  1  0
  3 27  1  0
  4 28  1  0
  6 29  1  0
  6 30  1  0
  7 31  1  0
  7 32  1  0
  8 33  1  0
 11 34  1  0
 12 35  1  0
 12 36  1  0
 13 37  1  0
 13 38  1  0
 15 39  1  0
 16 40  1  0
 18 41  1  0
 19 42  1  0
 20 43  1  0
 22 44  1  0
M  END
>  <Energy>  (745) 
414.985441075989

>  <compound_id>  (745) 
25793

>  <target_id>  (745) 
1

>  <reference_id>  (745) 
39

>  <inspiration_ids>  (745) 
[66, 39]

>  <energy_score>  (745) 
425.8591675334427

>  <distance_score>  (745) 
12.999575567884436

>  <path>  (745) 
/opt/xchem-fragalysis-2/maxwin/BulkDock/SCRATCH/511016/C25793-P39/C25793-P39.minimised.mol

>  <scratch_subdir>  (745) 
/opt/xchem-fragalysis-2/maxwin/BulkDock/SCRATCH/511016/C25793-P39

>  <fragmenstein_runtime>  (745) 
25.70145273208618

>  <fragmenstein_outcome>  (745) 
too moved

>  <fragmenstein_mode>  (745) 
expansion

>  <fragmenstein_error>  (745) 


$$$$
C25795-P66
     RDKit          3D

 42 44  0  0  0  0  0  0  0  0999 V2000
    7.0644  -12.8241   26.6123 C   0  0  0  0  0  0  0  0  0  0  0  0
    5.8005  -13.5494   27.0391 C   0  0  0  0  0  0  0  0  0  0  0  0
    5.2529  -13.5863   28.2904 C   0  0  0  0  0  0  0  0  0  0  0  0
    3.8273  -13.8979   28.2702 C   0  0  0  0  0  0  0  0  0  0  0  0
    3.1989  -14.0646   26.9538 C   0  0  0  0  0  0  0  0  0  0  0  0
    1.3290  -13.3447   25.7707 S   0  0  0  0  0  0  0  0  0  0  0  0
    2.0870  -13.0052   24.4900 O   0  0  0  0  0  0  0  0  0  0  0  0
    0.9180  -12.1502   26.5015 O   0  0  0  0  0  0  0  0  0  0  0  0
   -0.4583  -14.3078   24.5520 N   0  0  0  0  0  0  0  0  0  0  0  0
   -2.1344  -14.6700   25.6236 C   0  0  0  0  0  0  0  0  0  0  0  0
   -3.2333  -15.9983   26.7307 C   0  0  0  0  0  0  0  0  0  0  0  0
   -4.9064  -16.4170   27.6224 N   0  0  0  0  0  0  0  0  0  0  0  0
   -6.4618  -17.3849   27.2915 C   0  0  0  0  0  0  0  0  0  0  0  0
   -8.1090  -17.8892   28.1240 C   0  0  0  0  0  0  0  0  0  0  0  0
   -9.4643  -17.3265   28.2453 C   0  0  0  0  0  0  0  0  0  0  0  0
  -10.8470  -18.2084   28.8988 C   0  0  0  0  0  0  0  0  0  0  0  0
  -10.8378  -20.1462   29.3889 C   0  0  0  0  0  0  0  0  0  0  0  0
  -11.7118  -21.1395   29.8409 N   0  0  0  0  0  0  0  0  0  0  0  0
  -11.5023  -22.3285   29.2110 C   0  0  0  0  0  0  0  0  0  0  0  0
  -10.4007  -22.1771   28.4093 C   0  0  0  0  0  0  0  0  0  0  0  0
   -9.9555  -20.7899   28.5372 C   0  0  0  0  0  0  0  0  0  0  0  0
   -8.5458  -19.4353   28.2934 C   0  0  0  0  0  0  0  0  0  0  0  0
    4.7899  -14.5705   26.0333 S   0  0  0  0  0  0  0  0  0  0  0  0
    7.8942  -13.5279   26.4970 H   0  0  0  0  0  0  0  0  0  0  0  0
    6.9084  -12.2618   25.6871 H   0  0  0  0  0  0  0  0  0  0  0  0
    7.3526  -12.1002   27.3828 H   0  0  0  0  0  0  0  0  0  0  0  0
    5.7545  -13.2191   29.1789 H   0  0  0  0  0  0  0  0  0  0  0  0
    3.3444  -13.7197   29.2231 H   0  0  0  0  0  0  0  0  0  0  0  0
   -0.5040  -13.5328   23.9181 H   0  0  0  0  0  0  0  0  0  0  0  0
   -2.4207  -15.2682   24.7287 H   0  0  0  0  0  0  0  0  0  0  0  0
   -2.5537  -13.6680   25.6157 H   0  0  0  0  0  0  0  0  0  0  0  0
   -3.9189  -16.0896   25.9325 H   0  0  0  0  0  0  0  0  0  0  0  0
   -3.1320  -15.3009   27.5642 H   0  0  0  0  0  0  0  0  0  0  0  0
   -5.2900  -15.4945   27.8403 H   0  0  0  0  0  0  0  0  0  0  0  0
   -6.0222  -18.3656   27.0790 H   0  0  0  0  0  0  0  0  0  0  0  0
   -6.8101  -16.9160   26.3650 H   0  0  0  0  0  0  0  0  0  0  0  0
   -9.6733  -16.2912   27.9766 H   0  0  0  0  0  0  0  0  0  0  0  0
  -11.8154  -17.6911   28.9392 H   0  0  0  0  0  0  0  0  0  0  0  0
  -12.2522  -21.0860   30.6840 H   0  0  0  0  0  0  0  0  0  0  0  0
  -12.0570  -23.2132   29.4857 H   0  0  0  0  0  0  0  0  0  0  0  0
   -9.9246  -23.0353   27.9531 H   0  0  0  0  0  0  0  0  0  0  0  0
   -7.5664  -19.9436   27.9890 H   0  0  0  0  0  0  0  0  0  0  0  0
  1  2  1  0
  2  3  2  0
  3  4  1  0
  4  5  2  0
  5  6  1  0
  6  7  2  0
  6  8  2  0
  6  9  1  0
  9 10  1  0
 10 11  1  0
 11 12  1  0
 12 13  1  0
 13 14  1  0
 14 15  2  0
 15 16  1  0
 16 17  2  0
 17 18  1  0
 18 19  1  0
 19 20  2  0
 20 21  1  0
 21 22  2  0
  5 23  1  0
 23  2  1  0
 22 14  1  0
 21 17  1  0
  1 24  1  0
  1 25  1  0
  1 26  1  0
  3 27  1  0
  4 28  1  0
  9 29  1  0
 10 30  1  0
 10 31  1  0
 11 32  1  0
 11 33  1  0
 12 34  1  0
 13 35  1  0
 13 36  1  0
 15 37  1  0
 16 38  1  0
 18 39  1  0
 19 40  1  0
 20 41  1  0
 22 42  1  0
M  END
>  <Energy>  (746) 
944.3366250933866

>  <compound_id>  (746) 
25795

>  <target_id>  (746) 
1

>  <reference_id>  (746) 
66

>  <inspiration_ids>  (746) 
[66, 39]

>  <energy_score>  (746) 
900.0640365642654

>  <distance_score>  (746) 
13.015779025892645

>  <path>  (746) 
/opt/xchem-fragalysis-2/maxwin/BulkDock/SCRATCH/511016/C25795-P66/C25795-P66.minimised.mol

>  <scratch_subdir>  (746) 
/opt/xchem-fragalysis-2/maxwin/BulkDock/SCRATCH/511016/C25795-P66

>  <fragmenstein_runtime>  (746) 
25.17538619041443

>  <fragmenstein_outcome>  (746) 
too moved

>  <fragmenstein_mode>  (746) 
expansion

>  <fragmenstein_error>  (746) 


$$$$
C25795-P39
     RDKit          3D

 42 44  0  0  0  0  0  0  0  0999 V2000
   -2.0244   -8.1512   17.1391 C   0  0  0  0  0  0  0  0  0  0  0  0
   -2.2621   -9.2133   18.1672 C   0  0  0  0  0  0  0  0  0  0  0  0
   -2.9140  -10.4264   18.1848 C   0  0  0  0  0  0  0  0  0  0  0  0
   -2.6519  -11.1757   19.4016 C   0  0  0  0  0  0  0  0  0  0  0  0
   -1.7921  -10.5585   20.2645 C   0  0  0  0  0  0  0  0  0  0  0  0
   -0.8528  -10.6524   21.7659 S   0  0  0  0  0  0  0  0  0  0  0  0
   -1.7837   -9.8566   22.5547 O   0  0  0  0  0  0  0  0  0  0  0  0
    0.3761   -9.9701   21.4376 O   0  0  0  0  0  0  0  0  0  0  0  0
   -0.1044  -12.5897   22.7135 N   0  0  0  0  0  0  0  0  0  0  0  0
   -0.6181  -14.1592   23.8698 C   0  0  0  0  0  0  0  0  0  0  0  0
   -1.9728  -14.5296   25.3016 C   0  0  0  0  0  0  0  0  0  0  0  0
   -2.8865  -15.6379   26.1820 N   0  0  0  0  0  0  0  0  0  0  0  0
   -3.0667  -15.7533   27.6391 C   0  0  0  0  0  0  0  0  0  0  0  0
   -4.4476  -16.3532   27.9720 C   0  0  0  0  0  0  0  0  0  0  0  0
   -4.8022  -17.6701   27.6507 C   0  0  0  0  0  0  0  0  0  0  0  0
   -6.1415  -18.0992   27.6769 C   0  0  0  0  0  0  0  0  0  0  0  0
   -7.1259  -17.1542   27.9854 C   0  0  0  0  0  0  0  0  0  0  0  0
   -8.4964  -17.2040   27.9441 N   0  0  0  0  0  0  0  0  0  0  0  0
   -9.0506  -15.9946   28.2437 C   0  0  0  0  0  0  0  0  0  0  0  0
   -8.0201  -15.1652   28.6063 C   0  0  0  0  0  0  0  0  0  0  0  0
   -6.8033  -15.8726   28.4091 C   0  0  0  0  0  0  0  0  0  0  0  0
   -5.4479  -15.5031   28.4818 C   0  0  0  0  0  0  0  0  0  0  0  0
   -1.7875   -8.9292   19.7465 S   0  0  0  0  0  0  0  0  0  0  0  0
   -2.3613   -7.1713   17.4931 H   0  0  0  0  0  0  0  0  0  0  0  0
   -2.5862   -8.3762   16.2267 H   0  0  0  0  0  0  0  0  0  0  0  0
   -0.9678   -8.0821   16.8742 H   0  0  0  0  0  0  0  0  0  0  0  0
   -3.5364  -10.8055   17.3854 H   0  0  0  0  0  0  0  0  0  0  0  0
   -3.0889  -12.1107   19.6355 H   0  0  0  0  0  0  0  0  0  0  0  0
    0.6302  -12.0161   23.2319 H   0  0  0  0  0  0  0  0  0  0  0  0
    0.3692  -14.3284   24.2819 H   0  0  0  0  0  0  0  0  0  0  0  0
   -0.9756  -14.7717   23.0329 H   0  0  0  0  0  0  0  0  0  0  0  0
   -2.5235  -13.5974   25.4705 H   0  0  0  0  0  0  0  0  0  0  0  0
   -2.4362  -15.1814   24.5297 H   0  0  0  0  0  0  0  0  0  0  0  0
   -2.8409  -16.5570   25.7582 H   0  0  0  0  0  0  0  0  0  0  0  0
   -2.9841  -14.7776   28.1214 H   0  0  0  0  0  0  0  0  0  0  0  0
   -2.2910  -16.3937   28.0723 H   0  0  0  0  0  0  0  0  0  0  0  0
   -4.0386  -18.3680   27.3162 H   0  0  0  0  0  0  0  0  0  0  0  0
   -6.3908  -19.1053   27.3773 H   0  0  0  0  0  0  0  0  0  0  0  0
   -9.0450  -18.0160   27.7318 H   0  0  0  0  0  0  0  0  0  0  0  0
  -10.1208  -15.8413   28.2237 H   0  0  0  0  0  0  0  0  0  0  0  0
   -8.1197  -14.1349   28.9217 H   0  0  0  0  0  0  0  0  0  0  0  0
   -5.2021  -14.4836   28.7692 H   0  0  0  0  0  0  0  0  0  0  0  0
  1  2  1  0
  2  3  2  0
  3  4  1  0
  4  5  2  0
  5  6  1  0
  6  7  2  0
  6  8  2  0
  6  9  1  0
  9 10  1  0
 10 11  1  0
 11 12  1  0
 12 13  1  0
 13 14  1  0
 14 15  2  0
 15 16  1  0
 16 17  2  0
 17 18  1  0
 18 19  1  0
 19 20  2  0
 20 21  1  0
 21 22  2  0
  5 23  1  0
 23  2  1  0
 22 14  1  0
 21 17  1  0
  1 24  1  0
  1 25  1  0
  1 26  1  0
  3 27  1  0
  4 28  1  0
  9 29  1  0
 10 30  1  0
 10 31  1  0
 11 32  1  0
 11 33  1  0
 12 34  1  0
 13 35  1  0
 13 36  1  0
 15 37  1  0
 16 38  1  0
 18 39  1  0
 19 40  1  0
 20 41  1  0
 22 42  1  0
M  END
>  <Energy>  (747) 
347.21612742035404

>  <compound_id>  (747) 
25795

>  <target_id>  (747) 
1

>  <reference_id>  (747) 
39

>  <inspiration_ids>  (747) 
[66, 39]

>  <energy_score>  (747) 
302.9435388912469

>  <distance_score>  (747) 
14.308517374882332

>  <path>  (747) 
/opt/xchem-fragalysis-2/maxwin/BulkDock/SCRATCH/511016/C25795-P39/C25795-P39.minimised.mol

>  <scratch_subdir>  (747) 
/opt/xchem-fragalysis-2/maxwin/BulkDock/SCRATCH/511016/C25795-P39

>  <fragmenstein_runtime>  (747) 
32.10592770576477

>  <fragmenstein_outcome>  (747) 
too moved

>  <fragmenstein_mode>  (747) 
expansion

>  <fragmenstein_error>  (747) 


$$$$
C25796-P66
     RDKit          3D

 39 41  0  0  0  0  0  0  0  0999 V2000
    4.1694  -12.5639   21.3232 C   0  0  0  0  0  0  0  0  0  0  0  0
    3.3106  -12.7979   22.7490 C   0  0  0  0  0  0  0  0  0  0  0  0
    3.1025  -14.0614   23.4054 C   0  0  0  0  0  0  0  0  0  0  0  0
    3.4584  -13.7463   24.6742 C   0  0  0  0  0  0  0  0  0  0  0  0
    2.1755  -13.1901   24.9745 C   0  0  0  0  0  0  0  0  0  0  0  0
    1.4064  -13.8506   26.5887 C   0  0  0  0  0  0  0  0  0  0  0  0
    1.5711  -15.4213   27.8944 C   0  0  0  0  0  0  0  0  0  0  0  0
    0.5152  -15.9923   29.2584 C   0  0  0  0  0  0  0  0  0  0  0  0
    1.0219  -15.9979   30.3604 O   0  0  0  0  0  0  0  0  0  0  0  0
   -0.8175  -16.4766   28.8093 N   0  0  0  0  0  0  0  0  0  0  0  0
   -1.8928  -15.3081   28.9007 C   0  0  0  0  0  0  0  0  0  0  0  0
   -1.8958  -17.2163   29.5511 C   0  0  0  0  0  0  0  0  0  0  0  0
   -2.8663  -17.8625   28.7235 C   0  0  0  0  0  0  0  0  0  0  0  0
   -3.9671  -18.5649   29.2248 C   0  0  0  0  0  0  0  0  0  0  0  0
   -4.0298  -18.6978   30.6065 C   0  0  0  0  0  0  0  0  0  0  0  0
   -4.9993  -19.2724   31.3929 N   0  0  0  0  0  0  0  0  0  0  0  0
   -4.6039  -19.2881   32.6995 C   0  0  0  0  0  0  0  0  0  0  0  0
   -3.3902  -18.6470   32.7704 C   0  0  0  0  0  0  0  0  0  0  0  0
   -3.0269  -18.2277   31.4570 C   0  0  0  0  0  0  0  0  0  0  0  0
   -1.9301  -17.4905   30.9216 C   0  0  0  0  0  0  0  0  0  0  0  0
    2.1541  -12.1123   23.6702 S   0  0  0  0  0  0  0  0  0  0  0  0
    5.0812  -13.1294   21.0640 H   0  0  0  0  0  0  0  0  0  0  0  0
    4.6452  -11.5918   21.3603 H   0  0  0  0  0  0  0  0  0  0  0  0
    3.6948  -12.9951   20.4911 H   0  0  0  0  0  0  0  0  0  0  0  0
    3.4131  -15.0271   23.0745 H   0  0  0  0  0  0  0  0  0  0  0  0
    4.0321  -14.3674   25.3653 H   0  0  0  0  0  0  0  0  0  0  0  0
    0.5266  -13.2029   26.6847 H   0  0  0  0  0  0  0  0  0  0  0  0
    2.3043  -13.4674   27.0185 H   0  0  0  0  0  0  0  0  0  0  0  0
    1.7144  -16.4524   27.4893 H   0  0  0  0  0  0  0  0  0  0  0  0
    2.5870  -15.3398   28.3642 H   0  0  0  0  0  0  0  0  0  0  0  0
   -1.7730  -14.7657   29.8497 H   0  0  0  0  0  0  0  0  0  0  0  0
   -2.9478  -15.5190   28.6689 H   0  0  0  0  0  0  0  0  0  0  0  0
   -1.6358  -14.6073   28.1021 H   0  0  0  0  0  0  0  0  0  0  0  0
   -2.7775  -17.7603   27.6419 H   0  0  0  0  0  0  0  0  0  0  0  0
   -4.7248  -18.9769   28.5708 H   0  0  0  0  0  0  0  0  0  0  0  0
   -5.8712  -19.6663   31.0506 H   0  0  0  0  0  0  0  0  0  0  0  0
   -5.2352  -19.7301   33.4586 H   0  0  0  0  0  0  0  0  0  0  0  0
   -2.8273  -18.4706   33.6772 H   0  0  0  0  0  0  0  0  0  0  0  0
   -1.1499  -17.1200   31.5800 H   0  0  0  0  0  0  0  0  0  0  0  0
  1  2  1  0
  2  3  2  0
  3  4  1  0
  4  5  2  0
  5  6  1  0
  6  7  1  0
  7  8  1  0
  8  9  2  0
  8 10  1  0
 10 11  1  0
 10 12  1  0
 12 13  2  0
 13 14  1  0
 14 15  2  0
 15 16  1  0
 16 17  1  0
 17 18  2  0
 18 19  1  0
 19 20  2  0
  5 21  1  0
 21  2  1  0
 20 12  1  0
 19 15  1  0
  1 22  1  0
  1 23  1  0
  1 24  1  0
  3 25  1  0
  4 26  1  0
  6 27  1  0
  6 28  1  0
  7 29  1  0
  7 30  1  0
 11 31  1  0
 11 32  1  0
 11 33  1  0
 13 34  1  0
 14 35  1  0
 16 36  1  0
 17 37  1  0
 18 38  1  0
 20 39  1  0
M  END
>  <Energy>  (748) 
376.7785060753036

>  <compound_id>  (748) 
25796

>  <target_id>  (748) 
1

>  <reference_id>  (748) 
66

>  <inspiration_ids>  (748) 
[66, 39]

>  <energy_score>  (748) 
314.225374958398

>  <distance_score>  (748) 
14.18731828158448

>  <path>  (748) 
/opt/xchem-fragalysis-2/maxwin/BulkDock/SCRATCH/511016/C25796-P66/C25796-P66.minimised.mol

>  <scratch_subdir>  (748) 
/opt/xchem-fragalysis-2/maxwin/BulkDock/SCRATCH/511016/C25796-P66

>  <fragmenstein_runtime>  (748) 
22.59172773361206

>  <fragmenstein_outcome>  (748) 
too moved

>  <fragmenstein_mode>  (748) 
expansion

>  <fragmenstein_error>  (748) 


$$$$
C25796-P39
     RDKit          3D

 39 41  0  0  0  0  0  0  0  0999 V2000
    8.0112   -9.3627   26.0965 C   0  0  0  0  0  0  0  0  0  0  0  0
    7.0539   -9.7294   27.2072 C   0  0  0  0  0  0  0  0  0  0  0  0
    6.1853   -8.9062   27.8867 C   0  0  0  0  0  0  0  0  0  0  0  0
    5.3903   -9.6177   28.8588 C   0  0  0  0  0  0  0  0  0  0  0  0
    5.6795  -10.9778   28.9789 C   0  0  0  0  0  0  0  0  0  0  0  0
    5.1275  -12.0068   30.1219 C   0  0  0  0  0  0  0  0  0  0  0  0
    4.0646  -13.1149   29.7717 C   0  0  0  0  0  0  0  0  0  0  0  0
    3.0983  -13.8695   30.8609 C   0  0  0  0  0  0  0  0  0  0  0  0
    2.8552  -13.3327   31.9178 O   0  0  0  0  0  0  0  0  0  0  0  0
    2.5663  -15.1464   30.2721 N   0  0  0  0  0  0  0  0  0  0  0  0
    3.4606  -16.3309   30.6693 C   0  0  0  0  0  0  0  0  0  0  0  0
    1.4392  -16.1294   30.7880 C   0  0  0  0  0  0  0  0  0  0  0  0
    0.5942  -15.8221   31.8636 C   0  0  0  0  0  0  0  0  0  0  0  0
   -0.6583  -16.4816   32.0817 C   0  0  0  0  0  0  0  0  0  0  0  0
   -1.1107  -17.4437   31.1587 C   0  0  0  0  0  0  0  0  0  0  0  0
   -2.2818  -18.1794   31.0958 N   0  0  0  0  0  0  0  0  0  0  0  0
   -2.2889  -18.9672   29.9707 C   0  0  0  0  0  0  0  0  0  0  0  0
   -1.1070  -18.7390   29.2987 C   0  0  0  0  0  0  0  0  0  0  0  0
   -0.3488  -17.7767   30.0422 C   0  0  0  0  0  0  0  0  0  0  0  0
    0.9042  -17.1013   29.8606 C   0  0  0  0  0  0  0  0  0  0  0  0
    6.9328  -11.3397   27.8173 S   0  0  0  0  0  0  0  0  0  0  0  0
    9.0443   -9.4338   26.4505 H   0  0  0  0  0  0  0  0  0  0  0  0
    7.8317   -8.3386   25.7540 H   0  0  0  0  0  0  0  0  0  0  0  0
    7.8814  -10.0352   25.2426 H   0  0  0  0  0  0  0  0  0  0  0  0
    6.1021   -7.8416   27.7020 H   0  0  0  0  0  0  0  0  0  0  0  0
    4.6609   -9.1298   29.4959 H   0  0  0  0  0  0  0  0  0  0  0  0
    4.6920  -11.3672   30.9017 H   0  0  0  0  0  0  0  0  0  0  0  0
    6.0040  -12.4759   30.5835 H   0  0  0  0  0  0  0  0  0  0  0  0
    3.3207  -12.5575   29.1956 H   0  0  0  0  0  0  0  0  0  0  0  0
    4.4477  -13.8537   29.0778 H   0  0  0  0  0  0  0  0  0  0  0  0
    3.4517  -17.1422   29.9320 H   0  0  0  0  0  0  0  0  0  0  0  0
    3.3666  -16.6579   31.7181 H   0  0  0  0  0  0  0  0  0  0  0  0
    4.4691  -15.9202   30.6425 H   0  0  0  0  0  0  0  0  0  0  0  0
    0.8734  -15.0157   32.5409 H   0  0  0  0  0  0  0  0  0  0  0  0
   -1.2707  -16.1960   32.9329 H   0  0  0  0  0  0  0  0  0  0  0  0
   -3.0301  -18.1310   31.7746 H   0  0  0  0  0  0  0  0  0  0  0  0
   -3.1327  -19.6091   29.7523 H   0  0  0  0  0  0  0  0  0  0  0  0
   -0.8128  -19.2010   28.3658 H   0  0  0  0  0  0  0  0  0  0  0  0
    1.4357  -17.2834   28.9279 H   0  0  0  0  0  0  0  0  0  0  0  0
  1  2  1  0
  2  3  2  0
  3  4  1  0
  4  5  2  0
  5  6  1  0
  6  7  1  0
  7  8  1  0
  8  9  2  0
  8 10  1  0
 10 11  1  0
 10 12  1  0
 12 13  2  0
 13 14  1  0
 14 15  2  0
 15 16  1  0
 16 17  1  0
 17 18  2  0
 18 19  1  0
 19 20  2  0
  5 21  1  0
 21  2  1  0
 20 12  1  0
 19 15  1  0
  1 22  1  0
  1 23  1  0
  1 24  1  0
  3 25  1  0
  4 26  1  0
  6 27  1  0
  6 28  1  0
  7 29  1  0
  7 30  1  0
 11 31  1  0
 11 32  1  0
 11 33  1  0
 13 34  1  0
 14 35  1  0
 16 36  1  0
 17 37  1  0
 18 38  1  0
 20 39  1  0
M  END
>  <Energy>  (749) 
112.30727459988644

>  <compound_id>  (749) 
25796

>  <target_id>  (749) 
1

>  <reference_id>  (749) 
39

>  <inspiration_ids>  (749) 
[66, 39]

>  <energy_score>  (749) 
49.7541434829966

>  <distance_score>  (749) 
14.804170540743296

>  <path>  (749) 
/opt/xchem-fragalysis-2/maxwin/BulkDock/SCRATCH/511016/C25796-P39/C25796-P39.minimised.mol

>  <scratch_subdir>  (749) 
/opt/xchem-fragalysis-2/maxwin/BulkDock/SCRATCH/511016/C25796-P39

>  <fragmenstein_runtime>  (749) 
27.26363182067871

>  <fragmenstein_outcome>  (749) 
too moved

>  <fragmenstein_mode>  (749) 
expansion

>  <fragmenstein_error>  (749) 


$$$$
C25798-P66
     RDKit          3D

 42 44  0  0  0  0  0  0  0  0999 V2000
    7.3144   -6.8471   23.9289 C   0  0  0  0  0  0  0  0  0  0  0  0
    7.3890   -8.3029   24.2288 C   0  0  0  0  0  0  0  0  0  0  0  0
    7.5367   -9.3578   23.3589 C   0  0  0  0  0  0  0  0  0  0  0  0
    7.5031  -10.6174   24.0441 C   0  0  0  0  0  0  0  0  0  0  0  0
    7.2754  -10.5210   25.4125 C   0  0  0  0  0  0  0  0  0  0  0  0
    7.2032  -11.5985   26.5414 C   0  0  0  0  0  0  0  0  0  0  0  0
    8.5678  -12.3028   26.5073 C   0  0  0  0  0  0  0  0  0  0  0  0
    6.0432  -12.6005   26.5634 N   0  0  0  0  0  0  0  0  0  0  0  0
    5.0650  -12.9668   27.6721 C   0  0  0  0  0  0  0  0  0  0  0  0
    4.9245  -12.4912   28.7744 O   0  0  0  0  0  0  0  0  0  0  0  0
    3.8802  -14.4586   27.1849 C   0  0  0  0  0  0  0  0  0  0  0  0
    3.2186  -16.1696   27.9114 C   0  0  0  0  0  0  0  0  0  0  0  0
    1.8834  -17.3694   28.2038 C   0  0  0  0  0  0  0  0  0  0  0  0
    0.7815  -17.1166   29.0751 C   0  0  0  0  0  0  0  0  0  0  0  0
   -0.3675  -17.9404   29.2136 C   0  0  0  0  0  0  0  0  0  0  0  0
   -0.4346  -19.0927   28.4411 C   0  0  0  0  0  0  0  0  0  0  0  0
   -1.4472  -20.0218   28.3099 N   0  0  0  0  0  0  0  0  0  0  0  0
   -1.0745  -20.9909   27.4178 C   0  0  0  0  0  0  0  0  0  0  0  0
    0.2064  -20.6930   26.9955 C   0  0  0  0  0  0  0  0  0  0  0  0
    0.6318  -19.4788   27.6290 C   0  0  0  0  0  0  0  0  0  0  0  0
    1.8170  -18.6412   27.5600 C   0  0  0  0  0  0  0  0  0  0  0  0
    7.3223   -8.8391   25.8525 S   0  0  0  0  0  0  0  0  0  0  0  0
    6.8168   -6.6799   22.9681 H   0  0  0  0  0  0  0  0  0  0  0  0
    6.7441   -6.3016   24.6883 H   0  0  0  0  0  0  0  0  0  0  0  0
    8.3199   -6.4175   23.8799 H   0  0  0  0  0  0  0  0  0  0  0  0
    7.6534   -9.2470   22.2855 H   0  0  0  0  0  0  0  0  0  0  0  0
    7.6410  -11.5577   23.5377 H   0  0  0  0  0  0  0  0  0  0  0  0
    7.1214  -11.0819   27.5061 H   0  0  0  0  0  0  0  0  0  0  0  0
    9.3956  -11.5886   26.5799 H   0  0  0  0  0  0  0  0  0  0  0  0
    8.6969  -12.8838   25.5876 H   0  0  0  0  0  0  0  0  0  0  0  0
    8.6568  -13.0025   27.3446 H   0  0  0  0  0  0  0  0  0  0  0  0
    5.8351  -13.1323   25.7600 H   0  0  0  0  0  0  0  0  0  0  0  0
    2.9168  -13.9431   27.1185 H   0  0  0  0  0  0  0  0  0  0  0  0
    4.1455  -14.6518   26.1298 H   0  0  0  0  0  0  0  0  0  0  0  0
    3.4240  -16.7589   27.0378 H   0  0  0  0  0  0  0  0  0  0  0  0
    2.3068  -15.5637   28.0185 H   0  0  0  0  0  0  0  0  0  0  0  0
    0.7191  -16.2054   29.6427 H   0  0  0  0  0  0  0  0  0  0  0  0
   -1.1820  -17.6386   29.8657 H   0  0  0  0  0  0  0  0  0  0  0  0
   -2.3294  -19.9791   28.8027 H   0  0  0  0  0  0  0  0  0  0  0  0
   -1.7376  -21.8084   27.1702 H   0  0  0  0  0  0  0  0  0  0  0  0
    0.7835  -21.2723   26.2860 H   0  0  0  0  0  0  0  0  0  0  0  0
    2.6186  -18.9575   26.8982 H   0  0  0  0  0  0  0  0  0  0  0  0
  1  2  1  0
  2  3  2  0
  3  4  1  0
  4  5  2  0
  5  6  1  0
  6  7  1  0
  6  8  1  0
  8  9  1  0
  9 10  2  0
  9 11  1  0
 11 12  1  0
 12 13  1  0
 13 14  2  0
 14 15  1  0
 15 16  2  0
 16 17  1  0
 17 18  1  0
 18 19  2  0
 19 20  1  0
 20 21  2  0
  5 22  1  0
 22  2  1  0
 21 13  1  0
 20 16  1  0
  1 23  1  0
  1 24  1  0
  1 25  1  0
  3 26  1  0
  4 27  1  0
  6 28  1  0
  7 29  1  0
  7 30  1  0
  7 31  1  0
  8 32  1  0
 11 33  1  0
 11 34  1  0
 12 35  1  0
 12 36  1  0
 14 37  1  0
 15 38  1  0
 17 39  1  0
 18 40  1  0
 19 41  1  0
 21 42  1  0
M  END
>  <Energy>  (750) 
215.94745997488437

>  <compound_id>  (750) 
25798

>  <target_id>  (750) 
1

>  <reference_id>  (750) 
66

>  <inspiration_ids>  (750) 
[66, 39]

>  <energy_score>  (750) 
174.8280509789804

>  <distance_score>  (750) 
14.460272614771581

>  <path>  (750) 
/opt/xchem-fragalysis-2/maxwin/BulkDock/SCRATCH/511016/C25798-P66/C25798-P66.minimised.mol

>  <scratch_subdir>  (750) 
/opt/xchem-fragalysis-2/maxwin/BulkDock/SCRATCH/511016/C25798-P66

>  <fragmenstein_runtime>  (750) 
24.31868863105774

>  <fragmenstein_outcome>  (750) 
too moved

>  <fragmenstein_mode>  (750) 
expansion

>  <fragmenstein_error>  (750) 


$$$$
C25798-P39
     RDKit          3D

 42 44  0  0  0  0  0  0  0  0999 V2000
    3.4548  -12.3459   22.8024 C   0  0  0  0  0  0  0  0  0  0  0  0
    2.9546  -13.1726   23.7992 C   0  0  0  0  0  0  0  0  0  0  0  0
    2.0176  -12.7512   24.6343 C   0  0  0  0  0  0  0  0  0  0  0  0
    1.2864  -13.4843   25.6048 C   0  0  0  0  0  0  0  0  0  0  0  0
    0.5410  -14.3136   24.4777 C   0  0  0  0  0  0  0  0  0  0  0  0
   -1.3157  -15.1721   24.4646 C   0  0  0  0  0  0  0  0  0  0  0  0
   -0.8166  -14.6631   22.7741 C   0  0  0  0  0  0  0  0  0  0  0  0
   -3.1948  -15.6270   25.1162 N   0  0  0  0  0  0  0  0  0  0  0  0
   -3.8940  -17.1291   26.0796 C   0  0  0  0  0  0  0  0  0  0  0  0
   -3.1522  -18.0500   26.3460 O   0  0  0  0  0  0  0  0  0  0  0  0
   -5.8708  -17.5981   26.7167 C   0  0  0  0  0  0  0  0  0  0  0  0
   -7.3431  -18.6641   27.8642 C   0  0  0  0  0  0  0  0  0  0  0  0
   -9.0637  -19.8001   28.2262 C   0  0  0  0  0  0  0  0  0  0  0  0
   -9.3584  -21.2212   27.5462 C   0  0  0  0  0  0  0  0  0  0  0  0
   -9.7998  -22.7394   27.9246 C   0  0  0  0  0  0  0  0  0  0  0  0
  -10.9739  -22.8504   28.6084 C   0  0  0  0  0  0  0  0  0  0  0  0
  -11.7974  -23.8965   28.8943 N   0  0  0  0  0  0  0  0  0  0  0  0
  -12.5344  -23.5681   29.9963 C   0  0  0  0  0  0  0  0  0  0  0  0
  -12.1944  -22.2866   30.3732 C   0  0  0  0  0  0  0  0  0  0  0  0
  -11.2750  -21.7747   29.4152 C   0  0  0  0  0  0  0  0  0  0  0  0
  -10.3108  -20.6030   29.3378 C   0  0  0  0  0  0  0  0  0  0  0  0
    2.5333  -14.6363   23.2759 S   0  0  0  0  0  0  0  0  0  0  0  0
    2.6247  -11.6455   22.8403 H   0  0  0  0  0  0  0  0  0  0  0  0
    4.2408  -11.6123   22.5972 H   0  0  0  0  0  0  0  0  0  0  0  0
    3.5567  -12.9533   21.8743 H   0  0  0  0  0  0  0  0  0  0  0  0
    1.8384  -11.7339   24.6342 H   0  0  0  0  0  0  0  0  0  0  0  0
    0.7513  -13.0931   26.4305 H   0  0  0  0  0  0  0  0  0  0  0  0
   -1.5342  -14.2823   25.1082 H   0  0  0  0  0  0  0  0  0  0  0  0
    0.1809  -14.5751   22.3711 H   0  0  0  0  0  0  0  0  0  0  0  0
   -0.5297  -15.4950   22.0909 H   0  0  0  0  0  0  0  0  0  0  0  0
   -0.3648  -13.6951   22.9597 H   0  0  0  0  0  0  0  0  0  0  0  0
   -3.9182  -14.9179   25.0523 H   0  0  0  0  0  0  0  0  0  0  0  0
   -6.3334  -17.7138   25.7263 H   0  0  0  0  0  0  0  0  0  0  0  0
   -6.1278  -16.5948   27.0941 H   0  0  0  0  0  0  0  0  0  0  0  0
   -6.7557  -18.8571   28.7625 H   0  0  0  0  0  0  0  0  0  0  0  0
   -7.9158  -17.7425   28.0795 H   0  0  0  0  0  0  0  0  0  0  0  0
  -10.4371  -21.0173   27.1851 H   0  0  0  0  0  0  0  0  0  0  0  0
   -9.3605  -23.5735   27.3914 H   0  0  0  0  0  0  0  0  0  0  0  0
  -11.7393  -24.8172   28.4807 H   0  0  0  0  0  0  0  0  0  0  0  0
  -13.1661  -24.2957   30.4813 H   0  0  0  0  0  0  0  0  0  0  0  0
  -12.5269  -21.8166   31.2880 H   0  0  0  0  0  0  0  0  0  0  0  0
  -10.4145  -20.3702   30.4036 H   0  0  0  0  0  0  0  0  0  0  0  0
  1  2  1  0
  2  3  2  0
  3  4  1  0
  4  5  2  0
  5  6  1  0
  6  7  1  0
  6  8  1  0
  8  9  1  0
  9 10  2  0
  9 11  1  0
 11 12  1  0
 12 13  1  0
 13 14  2  0
 14 15  1  0
 15 16  2  0
 16 17  1  0
 17 18  1  0
 18 19  2  0
 19 20  1  0
 20 21  2  0
  5 22  1  0
 22  2  1  0
 21 13  1  0
 20 16  1  0
  1 23  1  0
  1 24  1  0
  1 25  1  0
  3 26  1  0
  4 27  1  0
  6 28  1  0
  7 29  1  0
  7 30  1  0
  7 31  1  0
  8 32  1  0
 11 33  1  0
 11 34  1  0
 12 35  1  0
 12 36  1  0
 14 37  1  0
 15 38  1  0
 17 39  1  0
 18 40  1  0
 19 41  1  0
 21 42  1  0
M  END
>  <Energy>  (751) 
1302.9432184827244

>  <compound_id>  (751) 
25798

>  <target_id>  (751) 
1

>  <reference_id>  (751) 
39

>  <inspiration_ids>  (751) 
[66, 39]

>  <energy_score>  (751) 
1261.8238094868168

>  <distance_score>  (751) 
13.944687178394153

>  <path>  (751) 
/opt/xchem-fragalysis-2/maxwin/BulkDock/SCRATCH/511016/C25798-P39/C25798-P39.minimised.mol

>  <scratch_subdir>  (751) 
/opt/xchem-fragalysis-2/maxwin/BulkDock/SCRATCH/511016/C25798-P39

>  <fragmenstein_runtime>  (751) 
39.10467195510864

>  <fragmenstein_outcome>  (751) 
too moved

>  <fragmenstein_mode>  (751) 
expansion

>  <fragmenstein_error>  (751) 


$$$$
C25799-P66
     RDKit          3D

 38 40  0  0  0  0  0  0  0  0999 V2000
    8.3267  -16.8833   18.8674 C   0  0  0  0  0  0  0  0  0  0  0  0
    7.6358  -17.8192   19.7962 C   0  0  0  0  0  0  0  0  0  0  0  0
    7.9882  -18.1928   21.0720 C   0  0  0  0  0  0  0  0  0  0  0  0
    7.0318  -19.0869   21.6716 C   0  0  0  0  0  0  0  0  0  0  0  0
    5.9874  -19.4477   20.8310 C   0  0  0  0  0  0  0  0  0  0  0  0
    4.8040  -20.3888   20.9812 C   0  0  0  0  0  0  0  0  0  0  0  0
    4.4642  -20.9435   19.9743 O   0  0  0  0  0  0  0  0  0  0  0  0
    4.2105  -20.3992   22.3205 N   0  0  0  0  0  0  0  0  0  0  0  0
    3.0294  -20.9790   22.7926 N   0  0  0  0  0  0  0  0  0  0  0  0
    2.4583  -21.0339   24.1455 C   0  0  0  0  0  0  0  0  0  0  0  0
    2.9021  -20.6641   25.1987 O   0  0  0  0  0  0  0  0  0  0  0  0
    1.0162  -21.6021   24.1098 C   0  0  0  0  0  0  0  0  0  0  0  0
    0.1478  -21.6783   25.1591 C   0  0  0  0  0  0  0  0  0  0  0  0
   -1.2629  -22.1871   25.1199 C   0  0  0  0  0  0  0  0  0  0  0  0
   -2.1099  -22.0941   26.2427 C   0  0  0  0  0  0  0  0  0  0  0  0
   -3.4421  -22.5629   26.2292 C   0  0  0  0  0  0  0  0  0  0  0  0
   -3.9070  -23.1291   25.0367 C   0  0  0  0  0  0  0  0  0  0  0  0
   -5.1163  -23.6809   24.6970 N   0  0  0  0  0  0  0  0  0  0  0  0
   -5.1439  -24.0397   23.3792 C   0  0  0  0  0  0  0  0  0  0  0  0
   -3.8945  -23.8170   22.8688 C   0  0  0  0  0  0  0  0  0  0  0  0
   -3.1132  -23.2362   23.9023 C   0  0  0  0  0  0  0  0  0  0  0  0
   -1.7864  -22.7751   23.9578 C   0  0  0  0  0  0  0  0  0  0  0  0
    6.2211  -18.6320   19.2987 S   0  0  0  0  0  0  0  0  0  0  0  0
    7.6491  -16.0872   18.5414 H   0  0  0  0  0  0  0  0  0  0  0  0
    8.6943  -17.4144   17.9834 H   0  0  0  0  0  0  0  0  0  0  0  0
    9.1847  -16.4107   19.3569 H   0  0  0  0  0  0  0  0  0  0  0  0
    8.8776  -17.8359   21.5785 H   0  0  0  0  0  0  0  0  0  0  0  0
    7.1432  -19.4874   22.6727 H   0  0  0  0  0  0  0  0  0  0  0  0
    4.7204  -19.7398   22.9194 H   0  0  0  0  0  0  0  0  0  0  0  0
    2.3400  -21.3083   22.1266 H   0  0  0  0  0  0  0  0  0  0  0  0
    0.7045  -21.9296   23.1271 H   0  0  0  0  0  0  0  0  0  0  0  0
    0.4906  -21.3257   26.1307 H   0  0  0  0  0  0  0  0  0  0  0  0
   -1.7328  -21.6502   27.1631 H   0  0  0  0  0  0  0  0  0  0  0  0
   -4.0700  -22.4864   27.1098 H   0  0  0  0  0  0  0  0  0  0  0  0
   -5.8982  -23.7751   25.3244 H   0  0  0  0  0  0  0  0  0  0  0  0
   -6.0361  -24.4319   22.9212 H   0  0  0  0  0  0  0  0  0  0  0  0
   -3.5800  -24.0192   21.8535 H   0  0  0  0  0  0  0  0  0  0  0  0
   -1.1905  -22.8853   23.0590 H   0  0  0  0  0  0  0  0  0  0  0  0
  1  2  1  0
  2  3  2  0
  3  4  1  0
  4  5  2  0
  5  6  1  0
  6  7  2  0
  6  8  1  0
  8  9  1  0
  9 10  1  0
 10 11  2  0
 10 12  1  0
 12 13  2  3
 13 14  1  0
 14 15  2  0
 15 16  1  0
 16 17  2  0
 17 18  1  0
 18 19  1  0
 19 20  2  0
 20 21  1  0
 21 22  2  0
  5 23  1  0
 23  2  1  0
 22 14  1  0
 21 17  1  0
  1 24  1  0
  1 25  1  0
  1 26  1  0
  3 27  1  0
  4 28  1  0
  8 29  1  0
  9 30  1  0
 12 31  1  0
 13 32  1  0
 15 33  1  0
 16 34  1  0
 18 35  1  0
 19 36  1  0
 20 37  1  0
 22 38  1  0
M  END
>  <Energy>  (752) 
84.467538314996872

>  <compound_id>  (752) 
25799

>  <target_id>  (752) 
1

>  <reference_id>  (752) 
66

>  <inspiration_ids>  (752) 
[66, 39]

>  <energy_score>  (752) 
-9.331604355894854

>  <distance_score>  (752) 
15.6511281970831

>  <path>  (752) 
/opt/xchem-fragalysis-2/maxwin/BulkDock/SCRATCH/511016/C25799-P66/C25799-P66.minimised.mol

>  <scratch_subdir>  (752) 
/opt/xchem-fragalysis-2/maxwin/BulkDock/SCRATCH/511016/C25799-P66

>  <fragmenstein_runtime>  (752) 
33.29152488708496

>  <fragmenstein_outcome>  (752) 
too moved

>  <fragmenstein_mode>  (752) 
expansion

>  <fragmenstein_error>  (752) 


$$$$
C25799-P39
     RDKit          3D

 38 40  0  0  0  0  0  0  0  0999 V2000
    3.9159  -11.9681   22.2881 C   0  0  0  0  0  0  0  0  0  0  0  0
    3.2325  -12.8118   23.2509 C   0  0  0  0  0  0  0  0  0  0  0  0
    3.2420  -13.6547   24.2788 C   0  0  0  0  0  0  0  0  0  0  0  0
    1.7587  -13.2445   25.1127 C   0  0  0  0  0  0  0  0  0  0  0  0
    0.6479  -14.1028   24.1547 C   0  0  0  0  0  0  0  0  0  0  0  0
   -1.1549  -14.1231   24.7760 C   0  0  0  0  0  0  0  0  0  0  0  0
   -1.4929  -13.1847   25.3958 O   0  0  0  0  0  0  0  0  0  0  0  0
   -1.8896  -15.3061   24.4925 N   0  0  0  0  0  0  0  0  0  0  0  0
   -3.1577  -15.7406   24.9300 N   0  0  0  0  0  0  0  0  0  0  0  0
   -3.6383  -16.0780   26.2538 C   0  0  0  0  0  0  0  0  0  0  0  0
   -3.0616  -16.1500   27.2998 O   0  0  0  0  0  0  0  0  0  0  0  0
   -5.1147  -16.3331   26.2592 C   0  0  0  0  0  0  0  0  0  0  0  0
   -5.6739  -17.3940   26.8765 C   0  0  0  0  0  0  0  0  0  0  0  0
   -4.9262  -18.5467   27.3838 C   0  0  0  0  0  0  0  0  0  0  0  0
   -4.6048  -18.6829   28.7303 C   0  0  0  0  0  0  0  0  0  0  0  0
   -3.8883  -19.7986   29.1855 C   0  0  0  0  0  0  0  0  0  0  0  0
   -3.6169  -20.8222   28.2657 C   0  0  0  0  0  0  0  0  0  0  0  0
   -3.0318  -22.0554   28.4413 N   0  0  0  0  0  0  0  0  0  0  0  0
   -3.0899  -22.7795   27.2788 C   0  0  0  0  0  0  0  0  0  0  0  0
   -3.6278  -21.9683   26.3082 C   0  0  0  0  0  0  0  0  0  0  0  0
   -3.9553  -20.7283   26.9218 C   0  0  0  0  0  0  0  0  0  0  0  0
   -4.5240  -19.5274   26.4676 C   0  0  0  0  0  0  0  0  0  0  0  0
    1.8366  -12.2315   23.6749 S   0  0  0  0  0  0  0  0  0  0  0  0
    4.0104  -12.4592   21.3126 H   0  0  0  0  0  0  0  0  0  0  0  0
    3.4864  -11.0295   22.5347 H   0  0  0  0  0  0  0  0  0  0  0  0
    4.7859  -11.2720   22.3739 H   0  0  0  0  0  0  0  0  0  0  0  0
    3.9898  -14.2280   24.8274 H   0  0  0  0  0  0  0  0  0  0  0  0
    1.5573  -13.4608   26.1695 H   0  0  0  0  0  0  0  0  0  0  0  0
   -1.3687  -15.8532   23.8943 H   0  0  0  0  0  0  0  0  0  0  0  0
   -3.9463  -15.6973   24.2909 H   0  0  0  0  0  0  0  0  0  0  0  0
   -5.7314  -15.5347   25.8639 H   0  0  0  0  0  0  0  0  0  0  0  0
   -6.7531  -17.4659   26.9655 H   0  0  0  0  0  0  0  0  0  0  0  0
   -4.8875  -17.9139   29.4463 H   0  0  0  0  0  0  0  0  0  0  0  0
   -3.6399  -19.8961   30.2380 H   0  0  0  0  0  0  0  0  0  0  0  0
   -2.6749  -22.3928   29.3248 H   0  0  0  0  0  0  0  0  0  0  0  0
   -2.7161  -23.7936   27.2381 H   0  0  0  0  0  0  0  0  0  0  0  0
   -3.7816  -22.2412   25.2723 H   0  0  0  0  0  0  0  0  0  0  0  0
   -4.6986  -19.3859   25.4064 H   0  0  0  0  0  0  0  0  0  0  0  0
  1  2  1  0
  2  3  2  0
  3  4  1  0
  4  5  2  0
  5  6  1  0
  6  7  2  0
  6  8  1  0
  8  9  1  0
  9 10  1  0
 10 11  2  0
 10 12  1  0
 12 13  2  3
 13 14  1  0
 14 15  2  0
 15 16  1  0
 16 17  2  0
 17 18  1  0
 18 19  1  0
 19 20  2  0
 20 21  1  0
 21 22  2  0
  5 23  1  0
 23  2  1  0
 22 14  1  0
 21 17  1  0
  1 24  1  0
  1 25  1  0
  1 26  1  0
  3 27  1  0
  4 28  1  0
  8 29  1  0
  9 30  1  0
 12 31  1  0
 13 32  1  0
 15 33  1  0
 16 34  1  0
 18 35  1  0
 19 36  1  0
 20 37  1  0
 22 38  1  0
M  END
>  <Energy>  (753) 
378.94545552996283

>  <compound_id>  (753) 
25799

>  <target_id>  (753) 
1

>  <reference_id>  (753) 
39

>  <inspiration_ids>  (753) 
[66, 39]

>  <energy_score>  (753) 
285.14631285906717

>  <distance_score>  (753) 
14.756852931784453

>  <path>  (753) 
/opt/xchem-fragalysis-2/maxwin/BulkDock/SCRATCH/511016/C25799-P39/C25799-P39.minimised.mol

>  <scratch_subdir>  (753) 
/opt/xchem-fragalysis-2/maxwin/BulkDock/SCRATCH/511016/C25799-P39

>  <fragmenstein_runtime>  (753) 
22.2124183177948

>  <fragmenstein_outcome>  (753) 
too moved

>  <fragmenstein_mode>  (753) 
expansion

>  <fragmenstein_error>  (753) 


$$$$
C25801-P66
     RDKit          3D

 41 43  0  0  0  0  0  0  0  0999 V2000
    5.1936   -6.7123   26.8353 C   0  0  0  0  0  0  0  0  0  0  0  0
    3.8623   -7.1726   27.3921 C   0  0  0  0  0  0  0  0  0  0  0  0
    2.5985   -6.7335   27.0501 C   0  0  0  0  0  0  0  0  0  0  0  0
    1.5474   -7.4881   27.6955 C   0  0  0  0  0  0  0  0  0  0  0  0
    1.9883   -8.4832   28.5727 C   0  0  0  0  0  0  0  0  0  0  0  0
    1.1066   -9.3102   29.6866 C   0  0  0  0  0  0  0  0  0  0  0  0
    1.7486   -9.2008   31.0880 C   0  0  0  0  0  0  0  0  0  0  0  0
    0.2608  -10.7209   29.6147 N   0  0  0  0  0  0  0  0  0  0  0  0
    1.4429  -11.1511   28.8662 C   0  0  0  0  0  0  0  0  0  0  0  0
   -1.0022  -11.0744   28.8448 C   0  0  0  0  0  0  0  0  0  0  0  0
   -1.6111  -10.4413   28.0544 O   0  0  0  0  0  0  0  0  0  0  0  0
   -1.2755  -12.4703   29.4141 N   0  0  0  0  0  0  0  0  0  0  0  0
   -2.3668  -13.3894   29.1750 C   0  0  0  0  0  0  0  0  0  0  0  0
   -3.4988  -13.0471   28.4292 C   0  0  0  0  0  0  0  0  0  0  0  0
   -4.5787  -13.9438   28.2007 C   0  0  0  0  0  0  0  0  0  0  0  0
   -4.5059  -15.2381   28.7311 C   0  0  0  0  0  0  0  0  0  0  0  0
   -5.3926  -16.2953   28.6659 N   0  0  0  0  0  0  0  0  0  0  0  0
   -4.8876  -17.3763   29.3374 C   0  0  0  0  0  0  0  0  0  0  0  0
   -3.6594  -17.0102   29.8482 C   0  0  0  0  0  0  0  0  0  0  0  0
   -3.4040  -15.6503   29.4795 C   0  0  0  0  0  0  0  0  0  0  0  0
   -2.3413  -14.7087   29.7075 C   0  0  0  0  0  0  0  0  0  0  0  0
    3.7516   -8.4433   28.5704 S   0  0  0  0  0  0  0  0  0  0  0  0
    5.8700   -6.4317   27.6485 H   0  0  0  0  0  0  0  0  0  0  0  0
    5.6536   -7.5143   26.2495 H   0  0  0  0  0  0  0  0  0  0  0  0
    5.0589   -5.8428   26.1843 H   0  0  0  0  0  0  0  0  0  0  0  0
    2.4145   -5.9314   26.3451 H   0  0  0  0  0  0  0  0  0  0  0  0
    0.4937   -7.2662   27.5584 H   0  0  0  0  0  0  0  0  0  0  0  0
    0.2361   -8.6343   29.7507 H   0  0  0  0  0  0  0  0  0  0  0  0
    2.6331   -9.8380   31.1845 H   0  0  0  0  0  0  0  0  0  0  0  0
    2.0512   -8.1706   31.3048 H   0  0  0  0  0  0  0  0  0  0  0  0
    1.0368   -9.5111   31.8609 H   0  0  0  0  0  0  0  0  0  0  0  0
    2.3889  -11.1248   29.4199 H   0  0  0  0  0  0  0  0  0  0  0  0
    1.4661  -10.7429   27.8622 H   0  0  0  0  0  0  0  0  0  0  0  0
    1.3013  -12.2273   28.6865 H   0  0  0  0  0  0  0  0  0  0  0  0
   -0.5077  -12.7450   30.0101 H   0  0  0  0  0  0  0  0  0  0  0  0
   -3.5757  -12.0482   28.0022 H   0  0  0  0  0  0  0  0  0  0  0  0
   -5.4352  -13.6183   27.6179 H   0  0  0  0  0  0  0  0  0  0  0  0
   -6.2903  -16.2615   28.2047 H   0  0  0  0  0  0  0  0  0  0  0  0
   -5.4469  -18.2992   29.4207 H   0  0  0  0  0  0  0  0  0  0  0  0
   -3.0162  -17.6449   30.4436 H   0  0  0  0  0  0  0  0  0  0  0  0
   -1.4885  -15.0341   30.2968 H   0  0  0  0  0  0  0  0  0  0  0  0
  1  2  1  0
  2  3  2  0
  3  4  1  0
  4  5  2  0
  5  6  1  0
  6  7  1  0
  6  8  1  0
  8  9  1  0
  8 10  1  0
 10 11  2  0
 10 12  1  0
 12 13  1  0
 13 14  2  0
 14 15  1  0
 15 16  2  0
 16 17  1  0
 17 18  1  0
 18 19  2  0
 19 20  1  0
 20 21  2  0
  5 22  1  0
 22  2  1  0
 21 13  1  0
 20 16  1  0
  1 23  1  0
  1 24  1  0
  1 25  1  0
  3 26  1  0
  4 27  1  0
  6 28  1  0
  7 29  1  0
  7 30  1  0
  7 31  1  0
  9 32  1  0
  9 33  1  0
  9 34  1  0
 12 35  1  0
 14 36  1  0
 15 37  1  0
 17 38  1  0
 18 39  1  0
 19 40  1  0
 21 41  1  0
M  END
>  <Energy>  (754) 
67.857094163066705

>  <compound_id>  (754) 
25801

>  <target_id>  (754) 
1

>  <reference_id>  (754) 
66

>  <inspiration_ids>  (754) 
[66, 39]

>  <energy_score>  (754) 
48.04364413494238

>  <distance_score>  (754) 
14.505677597873015

>  <path>  (754) 
/opt/xchem-fragalysis-2/maxwin/BulkDock/SCRATCH/511016/C25801-P66/C25801-P66.minimised.mol

>  <scratch_subdir>  (754) 
/opt/xchem-fragalysis-2/maxwin/BulkDock/SCRATCH/511016/C25801-P66

>  <fragmenstein_runtime>  (754) 
32.23207330703735

>  <fragmenstein_outcome>  (754) 
too moved

>  <fragmenstein_mode>  (754) 
expansion

>  <fragmenstein_error>  (754) 


$$$$
C25801-P39
     RDKit          3D

 41 43  0  0  0  0  0  0  0  0999 V2000
   -4.3002  -12.5682   25.7981 C   0  0  0  0  0  0  0  0  0  0  0  0
   -4.8766  -13.9046   26.2221 C   0  0  0  0  0  0  0  0  0  0  0  0
   -4.5577  -15.1824   25.8109 C   0  0  0  0  0  0  0  0  0  0  0  0
   -5.3414  -16.2138   26.4888 C   0  0  0  0  0  0  0  0  0  0  0  0
   -6.2737  -15.7363   27.4153 C   0  0  0  0  0  0  0  0  0  0  0  0
   -7.1806  -16.4493   28.6397 C   0  0  0  0  0  0  0  0  0  0  0  0
   -6.1181  -16.9695   29.6389 C   0  0  0  0  0  0  0  0  0  0  0  0
   -8.3678  -17.6779   28.6734 N   0  0  0  0  0  0  0  0  0  0  0  0
   -8.8302  -16.9402   27.4793 C   0  0  0  0  0  0  0  0  0  0  0  0
   -8.2642  -19.3410   28.3558 C   0  0  0  0  0  0  0  0  0  0  0  0
   -7.2596  -19.8462   27.9478 O   0  0  0  0  0  0  0  0  0  0  0  0
   -9.9211  -20.2639   28.8760 N   0  0  0  0  0  0  0  0  0  0  0  0
  -10.3299  -21.6954   28.7883 C   0  0  0  0  0  0  0  0  0  0  0  0
  -11.1104  -21.9981   29.9689 C   0  0  0  0  0  0  0  0  0  0  0  0
  -11.8550  -23.1757   30.1864 C   0  0  0  0  0  0  0  0  0  0  0  0
  -11.9722  -23.9956   29.0787 C   0  0  0  0  0  0  0  0  0  0  0  0
  -12.5172  -25.2413   28.9260 N   0  0  0  0  0  0  0  0  0  0  0  0
  -12.6040  -25.5544   27.5946 C   0  0  0  0  0  0  0  0  0  0  0  0
  -12.0918  -24.4934   26.8824 C   0  0  0  0  0  0  0  0  0  0  0  0
  -11.6032  -23.5482   27.8201 C   0  0  0  0  0  0  0  0  0  0  0  0
  -11.0141  -22.2663   27.7409 C   0  0  0  0  0  0  0  0  0  0  0  0
   -6.1344  -13.9701   27.3996 S   0  0  0  0  0  0  0  0  0  0  0  0
   -3.3121  -12.6991   25.3782 H   0  0  0  0  0  0  0  0  0  0  0  0
   -4.9577  -12.1019   25.0604 H   0  0  0  0  0  0  0  0  0  0  0  0
   -4.2177  -11.8911   26.6548 H   0  0  0  0  0  0  0  0  0  0  0  0
   -3.7873  -15.4039   25.0832 H   0  0  0  0  0  0  0  0  0  0  0  0
   -5.1770  -17.2754   26.3381 H   0  0  0  0  0  0  0  0  0  0  0  0
   -7.6770  -15.6113   29.1595 H   0  0  0  0  0  0  0  0  0  0  0  0
   -5.6102  -17.8536   29.2390 H   0  0  0  0  0  0  0  0  0  0  0  0
   -5.3585  -16.2093   29.8510 H   0  0  0  0  0  0  0  0  0  0  0  0
   -6.5796  -17.2486   30.5906 H   0  0  0  0  0  0  0  0  0  0  0  0
   -9.0453  -15.8771   27.6706 H   0  0  0  0  0  0  0  0  0  0  0  0
   -9.8171  -17.2703   27.2206 H   0  0  0  0  0  0  0  0  0  0  0  0
   -8.1918  -17.0781   26.6083 H   0  0  0  0  0  0  0  0  0  0  0  0
  -10.6227  -19.6307   29.0964 H   0  0  0  0  0  0  0  0  0  0  0  0
  -10.9994  -21.3507   30.8439 H   0  0  0  0  0  0  0  0  0  0  0  0
  -12.2700  -23.4277   31.1560 H   0  0  0  0  0  0  0  0  0  0  0  0
  -12.8687  -25.7991   29.6946 H   0  0  0  0  0  0  0  0  0  0  0  0
  -13.0326  -26.4901   27.2632 H   0  0  0  0  0  0  0  0  0  0  0  0
  -12.0354  -24.4180   25.8045 H   0  0  0  0  0  0  0  0  0  0  0  0
  -11.2470  -21.6966   26.8522 H   0  0  0  0  0  0  0  0  0  0  0  0
  1  2  1  0
  2  3  2  0
  3  4  1  0
  4  5  2  0
  5  6  1  0
  6  7  1  0
  6  8  1  0
  8  9  1  0
  8 10  1  0
 10 11  2  0
 10 12  1  0
 12 13  1  0
 13 14  2  0
 14 15  1  0
 15 16  2  0
 16 17  1  0
 17 18  1  0
 18 19  2  0
 19 20  1  0
 20 21  2  0
  5 22  1  0
 22  2  1  0
 21 13  1  0
 20 16  1  0
  1 23  1  0
  1 24  1  0
  1 25  1  0
  3 26  1  0
  4 27  1  0
  6 28  1  0
  7 29  1  0
  7 30  1  0
  7 31  1  0
  9 32  1  0
  9 33  1  0
  9 34  1  0
 12 35  1  0
 14 36  1  0
 15 37  1  0
 17 38  1  0
 18 39  1  0
 19 40  1  0
 21 41  1  0
M  END
>  <Energy>  (755) 
242.72182010342124

>  <compound_id>  (755) 
25801

>  <target_id>  (755) 
1

>  <reference_id>  (755) 
39

>  <inspiration_ids>  (755) 
[66, 39]

>  <energy_score>  (755) 
222.90837007529626

>  <distance_score>  (755) 
16.334870203944885

>  <path>  (755) 
/opt/xchem-fragalysis-2/maxwin/BulkDock/SCRATCH/511016/C25801-P39/C25801-P39.minimised.mol

>  <scratch_subdir>  (755) 
/opt/xchem-fragalysis-2/maxwin/BulkDock/SCRATCH/511016/C25801-P39

>  <fragmenstein_runtime>  (755) 
37.338460206985474

>  <fragmenstein_outcome>  (755) 
too moved

>  <fragmenstein_mode>  (755) 
expansion

>  <fragmenstein_error>  (755) 


$$$$
C25802-P66
     RDKit          3D

 39 41  0  0  0  0  0  0  0  0999 V2000
    3.9071  -11.6057   22.4755 C   0  0  0  0  0  0  0  0  0  0  0  0
    2.8679  -12.4211   23.3777 C   0  0  0  0  0  0  0  0  0  0  0  0
    2.8782  -13.2226   24.4858 C   0  0  0  0  0  0  0  0  0  0  0  0
    1.5238  -13.2123   25.1910 C   0  0  0  0  0  0  0  0  0  0  0  0
    0.5174  -14.1870   24.2088 C   0  0  0  0  0  0  0  0  0  0  0  0
   -1.3900  -14.9536   24.2743 C   0  0  0  0  0  0  0  0  0  0  0  0
   -3.0064  -15.6712   25.1862 N   0  0  0  0  0  0  0  0  0  0  0  0
   -3.4839  -17.3909   25.6467 C   0  0  0  0  0  0  0  0  0  0  0  0
   -2.7434  -18.3407   25.4939 O   0  0  0  0  0  0  0  0  0  0  0  0
   -5.3041  -18.0387   26.3023 C   0  0  0  0  0  0  0  0  0  0  0  0
   -6.2964  -19.5836   27.2464 C   0  0  0  0  0  0  0  0  0  0  0  0
   -7.7118  -21.0242   27.4932 C   0  0  0  0  0  0  0  0  0  0  0  0
   -9.4294  -20.8330   27.7244 C   0  0  0  0  0  0  0  0  0  0  0  0
  -10.6594  -21.7034   28.1394 C   0  0  0  0  0  0  0  0  0  0  0  0
  -10.4381  -23.0263   28.1519 C   0  0  0  0  0  0  0  0  0  0  0  0
  -11.3517  -24.0237   28.3603 N   0  0  0  0  0  0  0  0  0  0  0  0
  -10.7019  -25.1533   28.7170 C   0  0  0  0  0  0  0  0  0  0  0  0
   -9.3655  -24.8402   28.6761 C   0  0  0  0  0  0  0  0  0  0  0  0
   -9.1131  -23.4572   28.1077 C   0  0  0  0  0  0  0  0  0  0  0  0
   -7.7178  -22.4745   27.7249 C   0  0  0  0  0  0  0  0  0  0  0  0
    2.5926  -14.4561   23.2585 S   0  0  0  0  0  0  0  0  0  0  0  0
    3.5566  -10.5499   22.3937 H   0  0  0  0  0  0  0  0  0  0  0  0
    4.1301  -12.2375   21.6015 H   0  0  0  0  0  0  0  0  0  0  0  0
    4.8504  -11.0353   22.6988 H   0  0  0  0  0  0  0  0  0  0  0  0
    3.7457  -13.6634   25.0320 H   0  0  0  0  0  0  0  0  0  0  0  0
    1.2563  -13.2770   26.2350 H   0  0  0  0  0  0  0  0  0  0  0  0
   -1.1712  -15.8747   24.4406 H   0  0  0  0  0  0  0  0  0  0  0  0
   -1.6387  -15.1409   23.2061 H   0  0  0  0  0  0  0  0  0  0  0  0
   -3.7398  -15.0361   25.4767 H   0  0  0  0  0  0  0  0  0  0  0  0
   -5.8868  -17.9751   25.3732 H   0  0  0  0  0  0  0  0  0  0  0  0
   -5.5975  -17.1985   26.9480 H   0  0  0  0  0  0  0  0  0  0  0  0
   -6.5835  -18.9998   28.1345 H   0  0  0  0  0  0  0  0  0  0  0  0
   -5.3959  -20.1840   27.4614 H   0  0  0  0  0  0  0  0  0  0  0  0
   -9.3040  -19.7840   28.1105 H   0  0  0  0  0  0  0  0  0  0  0  0
  -11.6279  -21.3171   28.4306 H   0  0  0  0  0  0  0  0  0  0  0  0
  -12.3563  -23.8750   28.3861 H   0  0  0  0  0  0  0  0  0  0  0  0
  -11.2198  -26.0499   29.0233 H   0  0  0  0  0  0  0  0  0  0  0  0
   -8.6171  -25.5485   28.9953 H   0  0  0  0  0  0  0  0  0  0  0  0
   -6.7395  -22.9520   27.7477 H   0  0  0  0  0  0  0  0  0  0  0  0
  1  2  1  0
  2  3  2  0
  3  4  1  0
  4  5  2  0
  5  6  1  0
  6  7  1  0
  7  8  1  0
  8  9  2  0
  8 10  1  0
 10 11  1  0
 11 12  1  0
 12 13  2  0
 13 14  1  0
 14 15  2  0
 15 16  1  0
 16 17  1  0
 17 18  2  0
 18 19  1  0
 19 20  2  0
  5 21  1  0
 21  2  1  0
 20 12  1  0
 19 15  1  0
  1 22  1  0
  1 23  1  0
  1 24  1  0
  3 25  1  0
  4 26  1  0
  6 27  1  0
  6 28  1  0
  7 29  1  0
 10 30  1  0
 10 31  1  0
 11 32  1  0
 11 33  1  0
 13 34  1  0
 14 35  1  0
 16 36  1  0
 17 37  1  0
 18 38  1  0
 20 39  1  0
M  END
>  <Energy>  (756) 
948.71270211509579

>  <compound_id>  (756) 
25802

>  <target_id>  (756) 
1

>  <reference_id>  (756) 
66

>  <inspiration_ids>  (756) 
[66, 39]

>  <energy_score>  (756) 
911.1493977715345

>  <distance_score>  (756) 
13.88856844033735

>  <path>  (756) 
/opt/xchem-fragalysis-2/maxwin/BulkDock/SCRATCH/511016/C25802-P66/C25802-P66.minimised.mol

>  <scratch_subdir>  (756) 
/opt/xchem-fragalysis-2/maxwin/BulkDock/SCRATCH/511016/C25802-P66

>  <fragmenstein_runtime>  (756) 
23.91581892967224

>  <fragmenstein_outcome>  (756) 
too moved

>  <fragmenstein_mode>  (756) 
expansion

>  <fragmenstein_error>  (756) 


$$$$
C25802-P39
     RDKit          3D

 39 41  0  0  0  0  0  0  0  0999 V2000
    9.6196   -9.9782   20.5258 C   0  0  0  0  0  0  0  0  0  0  0  0
    8.5180  -10.8639   20.0693 C   0  0  0  0  0  0  0  0  0  0  0  0
    8.4859  -11.7471   19.0141 C   0  0  0  0  0  0  0  0  0  0  0  0
    7.3193  -12.5804   19.0519 C   0  0  0  0  0  0  0  0  0  0  0  0
    6.4811  -12.3030   20.1208 C   0  0  0  0  0  0  0  0  0  0  0  0
    5.1562  -12.9728   20.5505 C   0  0  0  0  0  0  0  0  0  0  0  0
    5.2763  -14.3715   21.3240 N   0  0  0  0  0  0  0  0  0  0  0  0
    4.1746  -15.1389   22.9618 C   0  0  0  0  0  0  0  0  0  0  0  0
    3.3351  -14.4556   23.5532 O   0  0  0  0  0  0  0  0  0  0  0  0
    4.2345  -17.1099   23.6256 C   0  0  0  0  0  0  0  0  0  0  0  0
    3.4672  -18.4288   24.7847 C   0  0  0  0  0  0  0  0  0  0  0  0
    2.1819  -19.4359   25.0721 C   0  0  0  0  0  0  0  0  0  0  0  0
    1.8039  -19.6203   26.4378 C   0  0  0  0  0  0  0  0  0  0  0  0
    0.6171  -20.2720   26.8632 C   0  0  0  0  0  0  0  0  0  0  0  0
   -0.2212  -20.8047   25.8840 C   0  0  0  0  0  0  0  0  0  0  0  0
   -1.4461  -21.4342   25.9927 N   0  0  0  0  0  0  0  0  0  0  0  0
   -1.8937  -21.8112   24.7550 C   0  0  0  0  0  0  0  0  0  0  0  0
   -0.9424  -21.4160   23.8368 C   0  0  0  0  0  0  0  0  0  0  0  0
    0.1270  -20.7628   24.5335 C   0  0  0  0  0  0  0  0  0  0  0  0
    1.3564  -20.1097   24.1387 C   0  0  0  0  0  0  0  0  0  0  0  0
    7.0370  -10.8646   20.9143 S   0  0  0  0  0  0  0  0  0  0  0  0
    9.7856  -10.0807   21.6038 H   0  0  0  0  0  0  0  0  0  0  0  0
    9.3913   -8.9331   20.3138 H   0  0  0  0  0  0  0  0  0  0  0  0
   10.5582  -10.2414   20.0293 H   0  0  0  0  0  0  0  0  0  0  0  0
    9.2899  -11.8606   18.2968 H   0  0  0  0  0  0  0  0  0  0  0  0
    7.1296  -13.3841   18.3504 H   0  0  0  0  0  0  0  0  0  0  0  0
    4.5466  -12.3245   21.1457 H   0  0  0  0  0  0  0  0  0  0  0  0
    4.6064  -13.2112   19.6310 H   0  0  0  0  0  0  0  0  0  0  0  0
    5.8748  -15.1332   20.9051 H   0  0  0  0  0  0  0  0  0  0  0  0
    4.1652  -17.7594   22.7334 H   0  0  0  0  0  0  0  0  0  0  0  0
    5.2807  -17.2498   23.9632 H   0  0  0  0  0  0  0  0  0  0  0  0
    4.2875  -19.1595   24.8034 H   0  0  0  0  0  0  0  0  0  0  0  0
    3.3753  -17.8684   25.7088 H   0  0  0  0  0  0  0  0  0  0  0  0
    2.4230  -19.1735   27.2174 H   0  0  0  0  0  0  0  0  0  0  0  0
    0.3672  -20.3233   27.9178 H   0  0  0  0  0  0  0  0  0  0  0  0
   -1.9318  -21.5909   26.8645 H   0  0  0  0  0  0  0  0  0  0  0  0
   -2.8407  -22.3188   24.6314 H   0  0  0  0  0  0  0  0  0  0  0  0
   -1.0077  -21.5546   22.7657 H   0  0  0  0  0  0  0  0  0  0  0  0
    1.5923  -20.0778   23.0789 H   0  0  0  0  0  0  0  0  0  0  0  0
  1  2  1  0
  2  3  2  0
  3  4  1  0
  4  5  2  0
  5  6  1  0
  6  7  1  0
  7  8  1  0
  8  9  2  0
  8 10  1  0
 10 11  1  0
 11 12  1  0
 12 13  2  0
 13 14  1  0
 14 15  2  0
 15 16  1  0
 16 17  1  0
 17 18  2  0
 18 19  1  0
 19 20  2  0
  5 21  1  0
 21  2  1  0
 20 12  1  0
 19 15  1  0
  1 22  1  0
  1 23  1  0
  1 24  1  0
  3 25  1  0
  4 26  1  0
  6 27  1  0
  6 28  1  0
  7 29  1  0
 10 30  1  0
 10 31  1  0
 11 32  1  0
 11 33  1  0
 13 34  1  0
 14 35  1  0
 16 36  1  0
 17 37  1  0
 18 38  1  0
 20 39  1  0
M  END
>  <Energy>  (757) 
393.23409316948459

>  <compound_id>  (757) 
25802

>  <target_id>  (757) 
1

>  <reference_id>  (757) 
39

>  <inspiration_ids>  (757) 
[66, 39]

>  <energy_score>  (757) 
355.6707888259327

>  <distance_score>  (757) 
14.280071990659216

>  <path>  (757) 
/opt/xchem-fragalysis-2/maxwin/BulkDock/SCRATCH/511016/C25802-P39/C25802-P39.minimised.mol

>  <scratch_subdir>  (757) 
/opt/xchem-fragalysis-2/maxwin/BulkDock/SCRATCH/511016/C25802-P39

>  <fragmenstein_runtime>  (757) 
21.149601221084595

>  <fragmenstein_outcome>  (757) 
too moved

>  <fragmenstein_mode>  (757) 
expansion

>  <fragmenstein_error>  (757) 


$$$$
C25803-P66
     RDKit          3D

 35 37  0  0  0  0  0  0  0  0999 V2000
    8.9593  -13.4685   23.5926 C   0  0  0  0  0  0  0  0  0  0  0  0
    8.2062  -12.8980   24.7602 C   0  0  0  0  0  0  0  0  0  0  0  0
    8.3598  -11.1864   24.9313 S   0  0  0  0  0  0  0  0  0  0  0  0
    7.4417  -11.2011   26.3531 C   0  0  0  0  0  0  0  0  0  0  0  0
    6.9802  -12.4631   26.6681 C   0  0  0  0  0  0  0  0  0  0  0  0
    7.3825  -13.4952   25.7476 C   0  0  0  0  0  0  0  0  0  0  0  0
    7.0235  -15.0189   25.8821 C   0  0  0  0  0  0  0  0  0  0  0  0
    5.8249  -15.5063   26.6558 N   0  0  0  0  0  0  0  0  0  0  0  0
    5.0667  -16.8818   26.6063 C   0  0  0  0  0  0  0  0  0  0  0  0
    5.2386  -17.7960   25.8855 O   0  0  0  0  0  0  0  0  0  0  0  0
    3.9985  -16.6789   27.7029 N   0  0  0  0  0  0  0  0  0  0  0  0
    2.8545  -17.5077   28.0852 C   0  0  0  0  0  0  0  0  0  0  0  0
    1.9809  -17.0446   29.0890 C   0  0  0  0  0  0  0  0  0  0  0  0
    0.7265  -17.6492   29.3904 C   0  0  0  0  0  0  0  0  0  0  0  0
    0.3271  -18.7617   28.6416 C   0  0  0  0  0  0  0  0  0  0  0  0
   -0.8455  -19.4944   28.6621 N   0  0  0  0  0  0  0  0  0  0  0  0
   -0.7945  -20.4898   27.7207 C   0  0  0  0  0  0  0  0  0  0  0  0
    0.4367  -20.4109   27.1020 C   0  0  0  0  0  0  0  0  0  0  0  0
    1.1640  -19.3127   27.6704 C   0  0  0  0  0  0  0  0  0  0  0  0
    2.4460  -18.6903   27.4188 C   0  0  0  0  0  0  0  0  0  0  0  0
    8.6568  -12.9924   22.6540 H   0  0  0  0  0  0  0  0  0  0  0  0
   10.0381  -13.3346   23.7259 H   0  0  0  0  0  0  0  0  0  0  0  0
    8.7675  -14.5420   23.4990 H   0  0  0  0  0  0  0  0  0  0  0  0
    7.2715  -10.2849   26.9011 H   0  0  0  0  0  0  0  0  0  0  0  0
    6.3761  -12.6474   27.5473 H   0  0  0  0  0  0  0  0  0  0  0  0
    6.9175  -15.4436   24.8776 H   0  0  0  0  0  0  0  0  0  0  0  0
    7.8852  -15.5126   26.3469 H   0  0  0  0  0  0  0  0  0  0  0  0
    5.3857  -14.9085   27.3311 H   0  0  0  0  0  0  0  0  0  0  0  0
    4.1807  -15.8214   28.1906 H   0  0  0  0  0  0  0  0  0  0  0  0
    2.2444  -16.1484   29.6479 H   0  0  0  0  0  0  0  0  0  0  0  0
    0.0842  -17.2208   30.1545 H   0  0  0  0  0  0  0  0  0  0  0  0
   -1.6247  -19.3100   29.2799 H   0  0  0  0  0  0  0  0  0  0  0  0
   -1.6254  -21.1674   27.5796 H   0  0  0  0  0  0  0  0  0  0  0  0
    0.7870  -21.0572   26.3069 H   0  0  0  0  0  0  0  0  0  0  0  0
    3.0643  -19.0971   26.6206 H   0  0  0  0  0  0  0  0  0  0  0  0
  1  2  1  0
  2  3  1  0
  3  4  1  0
  4  5  2  0
  5  6  1  0
  6  7  1  0
  7  8  1  0
  8  9  1  0
  9 10  2  0
  9 11  1  0
 11 12  1  0
 12 13  2  0
 13 14  1  0
 14 15  2  0
 15 16  1  0
 16 17  1  0
 17 18  2  0
 18 19  1  0
 19 20  2  0
  6  2  2  0
 20 12  1  0
 19 15  1  0
  1 21  1  0
  1 22  1  0
  1 23  1  0
  4 24  1  0
  5 25  1  0
  7 26  1  0
  7 27  1  0
  8 28  1  0
 11 29  1  0
 13 30  1  0
 14 31  1  0
 16 32  1  0
 17 33  1  0
 18 34  1  0
 20 35  1  0
M  END
>  <Energy>  (758) 
-18.618785168606642

>  <compound_id>  (758) 
25803

>  <target_id>  (758) 
1

>  <reference_id>  (758) 
66

>  <inspiration_ids>  (758) 
[66, 39]

>  <energy_score>  (758) 
-12.008683785667245

>  <distance_score>  (758) 
15.393123273275652

>  <path>  (758) 
/opt/xchem-fragalysis-2/maxwin/BulkDock/SCRATCH/511016/C25803-P66/C25803-P66.minimised.mol

>  <scratch_subdir>  (758) 
/opt/xchem-fragalysis-2/maxwin/BulkDock/SCRATCH/511016/C25803-P66

>  <fragmenstein_runtime>  (758) 
34.489198446273804

>  <fragmenstein_outcome>  (758) 
too moved

>  <fragmenstein_mode>  (758) 
expansion

>  <fragmenstein_error>  (758) 


$$$$
C25803-P39
     RDKit          3D

 35 37  0  0  0  0  0  0  0  0999 V2000
    1.5256   -8.4973   19.6597 C   0  0  0  0  0  0  0  0  0  0  0  0
    1.7121  -10.0168   20.1094 C   0  0  0  0  0  0  0  0  0  0  0  0
    3.2164  -11.6002   18.6284 S   0  0  0  0  0  0  0  0  0  0  0  0
    3.7756  -12.7578   20.7345 C   0  0  0  0  0  0  0  0  0  0  0  0
    2.9785  -12.3775   22.4708 C   0  0  0  0  0  0  0  0  0  0  0  0
    1.4532  -11.0787   21.8186 C   0  0  0  0  0  0  0  0  0  0  0  0
    0.3849  -11.6126   22.6494 C   0  0  0  0  0  0  0  0  0  0  0  0
   -0.2075  -13.4670   23.1011 N   0  0  0  0  0  0  0  0  0  0  0  0
   -1.1221  -14.1049   24.5945 C   0  0  0  0  0  0  0  0  0  0  0  0
   -1.3158  -13.4089   25.4527 O   0  0  0  0  0  0  0  0  0  0  0  0
   -1.6575  -15.4517   24.4668 N   0  0  0  0  0  0  0  0  0  0  0  0
   -2.8118  -16.3505   25.4597 C   0  0  0  0  0  0  0  0  0  0  0  0
   -3.2156  -15.7734   26.7010 C   0  0  0  0  0  0  0  0  0  0  0  0
   -3.9260  -16.4265   27.7575 C   0  0  0  0  0  0  0  0  0  0  0  0
   -4.1401  -17.7951   27.6381 C   0  0  0  0  0  0  0  0  0  0  0  0
   -4.5800  -18.7447   28.5325 N   0  0  0  0  0  0  0  0  0  0  0  0
   -4.2349  -19.9858   28.0501 C   0  0  0  0  0  0  0  0  0  0  0  0
   -3.9220  -19.8640   26.7248 C   0  0  0  0  0  0  0  0  0  0  0  0
   -3.7652  -18.4712   26.4926 C   0  0  0  0  0  0  0  0  0  0  0  0
   -3.1393  -17.7430   25.4410 C   0  0  0  0  0  0  0  0  0  0  0  0
    0.5379   -8.3026   19.2292 H   0  0  0  0  0  0  0  0  0  0  0  0
    1.5900   -7.8646   20.5508 H   0  0  0  0  0  0  0  0  0  0  0  0
    2.2737   -8.2025   18.9185 H   0  0  0  0  0  0  0  0  0  0  0  0
    4.7586  -13.1528   20.5211 H   0  0  0  0  0  0  0  0  0  0  0  0
    2.9960  -12.9624   23.3906 H   0  0  0  0  0  0  0  0  0  0  0  0
   -0.5619  -11.2766   22.0467 H   0  0  0  0  0  0  0  0  0  0  0  0
    0.0130  -10.6677   23.0356 H   0  0  0  0  0  0  0  0  0  0  0  0
   -0.0432  -14.2324   22.4633 H   0  0  0  0  0  0  0  0  0  0  0  0
   -1.4047  -15.7951   23.6028 H   0  0  0  0  0  0  0  0  0  0  0  0
   -2.9437  -14.7389   26.8950 H   0  0  0  0  0  0  0  0  0  0  0  0
   -4.1656  -15.8838   28.6674 H   0  0  0  0  0  0  0  0  0  0  0  0
   -4.8834  -18.5617   29.4825 H   0  0  0  0  0  0  0  0  0  0  0  0
   -4.2295  -20.8437   28.7001 H   0  0  0  0  0  0  0  0  0  0  0  0
   -3.6370  -20.6719   26.0642 H   0  0  0  0  0  0  0  0  0  0  0  0
   -2.7613  -18.4901   24.7748 H   0  0  0  0  0  0  0  0  0  0  0  0
  1  2  1  0
  2  3  1  0
  3  4  1  0
  4  5  2  0
  5  6  1  0
  6  7  1  0
  7  8  1  0
  8  9  1  0
  9 10  2  0
  9 11  1  0
 11 12  1  0
 12 13  2  0
 13 14  1  0
 14 15  2  0
 15 16  1  0
 16 17  1  0
 17 18  2  0
 18 19  1  0
 19 20  2  0
  6  2  2  0
 20 12  1  0
 19 15  1  0
  1 21  1  0
  1 22  1  0
  1 23  1  0
  4 24  1  0
  5 25  1  0
  7 26  1  0
  7 27  1  0
  8 28  1  0
 11 29  1  0
 13 30  1  0
 14 31  1  0
 16 32  1  0
 17 33  1  0
 18 34  1  0
 20 35  1  0
M  END
>  <Energy>  (759) 
990.30976209362893

>  <compound_id>  (759) 
25803

>  <target_id>  (759) 
1

>  <reference_id>  (759) 
39

>  <inspiration_ids>  (759) 
[66, 39]

>  <energy_score>  (759) 
996.9198634765828

>  <distance_score>  (759) 
13.795934668229558

>  <path>  (759) 
/opt/xchem-fragalysis-2/maxwin/BulkDock/SCRATCH/511016/C25803-P39/C25803-P39.minimised.mol

>  <scratch_subdir>  (759) 
/opt/xchem-fragalysis-2/maxwin/BulkDock/SCRATCH/511016/C25803-P39

>  <fragmenstein_runtime>  (759) 
12.650721311569214

>  <fragmenstein_outcome>  (759) 
too moved

>  <fragmenstein_mode>  (759) 
expansion

>  <fragmenstein_error>  (759) 


$$$$
C25804-P66
     RDKit          3D

 46 48  0  0  0  0  0  0  0  0999 V2000
    8.4710  -10.4178   26.1203 C   0  0  0  0  0  0  0  0  0  0  0  0
    7.3427  -11.1626   26.7447 C   0  0  0  0  0  0  0  0  0  0  0  0
    6.6351  -10.8505   27.8667 C   0  0  0  0  0  0  0  0  0  0  0  0
    5.5835  -11.8014   28.1478 C   0  0  0  0  0  0  0  0  0  0  0  0
    5.3826  -12.8908   27.2673 C   0  0  0  0  0  0  0  0  0  0  0  0
    4.1469  -14.1945   26.8716 C   0  0  0  0  0  0  0  0  0  0  0  0
    4.1862  -14.3675   25.6292 O   0  0  0  0  0  0  0  0  0  0  0  0
    3.3961  -15.7321   27.7921 C   0  0  0  0  0  0  0  0  0  0  0  0
    1.6983  -16.5242   28.2936 C   0  0  0  0  0  0  0  0  0  0  0  0
    0.3563  -17.7989   28.3748 C   0  0  0  0  0  0  0  0  0  0  0  0
   -0.5192  -17.7691   27.4493 O   0  0  0  0  0  0  0  0  0  0  0  0
   -0.2004  -19.2838   29.7206 C   0  0  0  0  0  0  0  0  0  0  0  0
   -1.5214  -20.6487   29.4336 C   0  0  0  0  0  0  0  0  0  0  0  0
   -2.3938  -21.8579   30.5830 C   0  0  0  0  0  0  0  0  0  0  0  0
   -2.2426  -21.5525   31.7536 O   0  0  0  0  0  0  0  0  0  0  0  0
   -3.3004  -23.0482   29.9124 N   0  0  0  0  0  0  0  0  0  0  0  0
   -4.4015  -24.1531   30.6312 C   0  0  0  0  0  0  0  0  0  0  0  0
   -4.8153  -24.1006   31.8777 C   0  0  0  0  0  0  0  0  0  0  0  0
   -6.4207  -24.5085   32.4972 C   0  0  0  0  0  0  0  0  0  0  0  0
   -7.8199  -25.1478   32.0734 C   0  0  0  0  0  0  0  0  0  0  0  0
   -9.1527  -25.1652   32.3497 N   0  0  0  0  0  0  0  0  0  0  0  0
   -9.8728  -25.2957   31.1644 C   0  0  0  0  0  0  0  0  0  0  0  0
   -9.0189  -25.1802   30.0747 C   0  0  0  0  0  0  0  0  0  0  0  0
   -7.6583  -25.0074   30.6504 C   0  0  0  0  0  0  0  0  0  0  0  0
   -5.7758  -24.5254   30.2169 C   0  0  0  0  0  0  0  0  0  0  0  0
    6.7637  -12.5864   26.0540 S   0  0  0  0  0  0  0  0  0  0  0  0
    8.9730   -9.7842   26.8592 H   0  0  0  0  0  0  0  0  0  0  0  0
    9.2216  -11.0962   25.7015 H   0  0  0  0  0  0  0  0  0  0  0  0
    8.0988   -9.7716   25.3187 H   0  0  0  0  0  0  0  0  0  0  0  0
    6.8260   -9.9739   28.4743 H   0  0  0  0  0  0  0  0  0  0  0  0
    4.9264  -11.5792   28.9447 H   0  0  0  0  0  0  0  0  0  0  0  0
    4.0825  -16.1824   28.4704 H   0  0  0  0  0  0  0  0  0  0  0  0
    3.5810  -16.4957   27.0346 H   0  0  0  0  0  0  0  0  0  0  0  0
    1.0966  -15.7331   28.6776 H   0  0  0  0  0  0  0  0  0  0  0  0
    1.6849  -16.8467   27.2821 H   0  0  0  0  0  0  0  0  0  0  0  0
    0.5942  -19.9054   30.1402 H   0  0  0  0  0  0  0  0  0  0  0  0
   -0.4845  -18.8620   30.7021 H   0  0  0  0  0  0  0  0  0  0  0  0
   -1.0653  -21.3294   28.7139 H   0  0  0  0  0  0  0  0  0  0  0  0
   -2.3434  -20.1127   28.9449 H   0  0  0  0  0  0  0  0  0  0  0  0
   -3.2663  -22.9739   28.9030 H   0  0  0  0  0  0  0  0  0  0  0  0
   -4.1977  -23.2706   32.2476 H   0  0  0  0  0  0  0  0  0  0  0  0
   -6.9527  -23.5684   32.7772 H   0  0  0  0  0  0  0  0  0  0  0  0
   -9.5590  -25.1726   33.2748 H   0  0  0  0  0  0  0  0  0  0  0  0
  -10.9470  -25.4058   31.2172 H   0  0  0  0  0  0  0  0  0  0  0  0
   -9.3032  -25.1639   29.0336 H   0  0  0  0  0  0  0  0  0  0  0  0
   -5.7840  -24.2095   29.1832 H   0  0  0  0  0  0  0  0  0  0  0  0
  1  2  1  0
  2  3  2  0
  3  4  1  0
  4  5  2  0
  5  6  1  0
  6  7  2  0
  6  8  1  0
  8  9  1  0
  9 10  1  0
 10 11  2  0
 10 12  1  0
 12 13  1  0
 13 14  1  0
 14 15  2  0
 14 16  1  0
 16 17  1  0
 17 18  2  0
 18 19  1  0
 19 20  2  0
 20 21  1  0
 21 22  1  0
 22 23  2  0
 23 24  1  0
 24 25  2  0
  5 26  1  0
 26  2  1  0
 25 17  1  0
 24 20  1  0
  1 27  1  0
  1 28  1  0
  1 29  1  0
  3 30  1  0
  4 31  1  0
  8 32  1  0
  8 33  1  0
  9 34  1  0
  9 35  1  0
 12 36  1  0
 12 37  1  0
 13 38  1  0
 13 39  1  0
 16 40  1  0
 18 41  1  0
 19 42  1  0
 21 43  1  0
 22 44  1  0
 23 45  1  0
 25 46  1  0
M  END
>  <Energy>  (760) 
775.06048598818359

>  <compound_id>  (760) 
25804

>  <target_id>  (760) 
1

>  <reference_id>  (760) 
66

>  <inspiration_ids>  (760) 
[66, 39]

>  <energy_score>  (760) 
731.6789628640802

>  <distance_score>  (760) 
12.897960725611457

>  <path>  (760) 
/opt/xchem-fragalysis-2/maxwin/BulkDock/SCRATCH/511016/C25804-P66/C25804-P66.minimised.mol

>  <scratch_subdir>  (760) 
/opt/xchem-fragalysis-2/maxwin/BulkDock/SCRATCH/511016/C25804-P66

>  <fragmenstein_runtime>  (760) 
38.374934673309326

>  <fragmenstein_outcome>  (760) 
too moved

>  <fragmenstein_mode>  (760) 
expansion

>  <fragmenstein_error>  (760) 


$$$$
C25804-P39
     RDKit          3D

 46 48  0  0  0  0  0  0  0  0999 V2000
    9.4803  -11.4481   18.2134 C   0  0  0  0  0  0  0  0  0  0  0  0
    8.2589  -12.1085   18.7096 C   0  0  0  0  0  0  0  0  0  0  0  0
    7.9710  -13.4366   18.6657 C   0  0  0  0  0  0  0  0  0  0  0  0
    6.6498  -13.6160   19.1313 C   0  0  0  0  0  0  0  0  0  0  0  0
    6.1533  -12.6528   20.0888 C   0  0  0  0  0  0  0  0  0  0  0  0
    4.6431  -12.7641   20.5747 C   0  0  0  0  0  0  0  0  0  0  0  0
    4.1460  -12.9544   19.4608 O   0  0  0  0  0  0  0  0  0  0  0  0
    3.4667  -12.8532   22.1918 C   0  0  0  0  0  0  0  0  0  0  0  0
    2.3219  -13.8714   23.5822 C   0  0  0  0  0  0  0  0  0  0  0  0
    0.4320  -14.2366   24.5672 C   0  0  0  0  0  0  0  0  0  0  0  0
    0.9515  -13.6333   25.7646 O   0  0  0  0  0  0  0  0  0  0  0  0
   -1.5781  -15.0291   25.0466 C   0  0  0  0  0  0  0  0  0  0  0  0
   -2.6026  -16.4125   26.4430 C   0  0  0  0  0  0  0  0  0  0  0  0
   -3.9310  -17.0033   28.0075 C   0  0  0  0  0  0  0  0  0  0  0  0
   -3.8071  -16.2570   28.9453 O   0  0  0  0  0  0  0  0  0  0  0  0
   -5.1240  -18.4582   28.1502 N   0  0  0  0  0  0  0  0  0  0  0  0
   -6.3749  -18.9825   29.5402 C   0  0  0  0  0  0  0  0  0  0  0  0
   -5.9740  -20.0290   31.1361 C   0  0  0  0  0  0  0  0  0  0  0  0
   -7.3602  -21.2073   32.0516 C   0  0  0  0  0  0  0  0  0  0  0  0
   -9.3355  -21.0108   31.5793 C   0  0  0  0  0  0  0  0  0  0  0  0
  -10.5916  -21.6456   31.8265 N   0  0  0  0  0  0  0  0  0  0  0  0
  -11.4021  -21.8141   30.6868 C   0  0  0  0  0  0  0  0  0  0  0  0
  -10.9450  -21.2892   29.4854 C   0  0  0  0  0  0  0  0  0  0  0  0
   -9.7475  -20.5238   29.7462 C   0  0  0  0  0  0  0  0  0  0  0  0
   -8.1438  -19.4500   28.8444 C   0  0  0  0  0  0  0  0  0  0  0  0
    6.8214  -11.2868   19.1309 S   0  0  0  0  0  0  0  0  0  0  0  0
    9.2678  -10.8650   17.3146 H   0  0  0  0  0  0  0  0  0  0  0  0
    9.9073  -10.8167   18.9944 H   0  0  0  0  0  0  0  0  0  0  0  0
   10.2458  -12.1852   17.9462 H   0  0  0  0  0  0  0  0  0  0  0  0
    8.5775  -14.1833   18.1688 H   0  0  0  0  0  0  0  0  0  0  0  0
    6.0789  -14.5123   18.9020 H   0  0  0  0  0  0  0  0  0  0  0  0
    3.1941  -13.5806   21.4270 H   0  0  0  0  0  0  0  0  0  0  0  0
    3.3902  -11.8502   22.5257 H   0  0  0  0  0  0  0  0  0  0  0  0
    2.9310  -14.7844   23.4587 H   0  0  0  0  0  0  0  0  0  0  0  0
    2.7798  -13.2491   24.3404 H   0  0  0  0  0  0  0  0  0  0  0  0
   -2.0979  -14.1522   25.4621 H   0  0  0  0  0  0  0  0  0  0  0  0
   -2.0362  -15.3879   24.1432 H   0  0  0  0  0  0  0  0  0  0  0  0
   -2.0487  -15.9614   27.3047 H   0  0  0  0  0  0  0  0  0  0  0  0
   -2.2244  -17.4443   26.2119 H   0  0  0  0  0  0  0  0  0  0  0  0
   -5.1705  -18.9243   27.2603 H   0  0  0  0  0  0  0  0  0  0  0  0
   -4.9909  -19.9406   31.5949 H   0  0  0  0  0  0  0  0  0  0  0  0
   -7.2753  -21.3276   33.1394 H   0  0  0  0  0  0  0  0  0  0  0  0
  -10.7709  -22.2168   32.6370 H   0  0  0  0  0  0  0  0  0  0  0  0
  -12.2859  -22.4221   30.8417 H   0  0  0  0  0  0  0  0  0  0  0  0
  -11.4213  -21.4312   28.5248 H   0  0  0  0  0  0  0  0  0  0  0  0
   -7.6717  -19.8527   27.9421 H   0  0  0  0  0  0  0  0  0  0  0  0
  1  2  1  0
  2  3  2  0
  3  4  1  0
  4  5  2  0
  5  6  1  0
  6  7  2  0
  6  8  1  0
  8  9  1  0
  9 10  1  0
 10 11  2  0
 10 12  1  0
 12 13  1  0
 13 14  1  0
 14 15  2  0
 14 16  1  0
 16 17  1  0
 17 18  2  0
 18 19  1  0
 19 20  2  0
 20 21  1  0
 21 22  1  0
 22 23  2  0
 23 24  1  0
 24 25  2  0
  5 26  1  0
 26  2  1  0
 25 17  1  0
 24 20  1  0
  1 27  1  0
  1 28  1  0
  1 29  1  0
  3 30  1  0
  4 31  1  0
  8 32  1  0
  8 33  1  0
  9 34  1  0
  9 35  1  0
 12 36  1  0
 12 37  1  0
 13 38  1  0
 13 39  1  0
 16 40  1  0
 18 41  1  0
 19 42  1  0
 21 43  1  0
 22 44  1  0
 23 45  1  0
 25 46  1  0
M  END
>  <Energy>  (761) 
1903.0342483530944

>  <compound_id>  (761) 
25804

>  <target_id>  (761) 
1

>  <reference_id>  (761) 
39

>  <inspiration_ids>  (761) 
[66, 39]

>  <energy_score>  (761) 
1859.6527252290525

>  <distance_score>  (761) 
10.95253395109726

>  <path>  (761) 
/opt/xchem-fragalysis-2/maxwin/BulkDock/SCRATCH/511016/C25804-P39/C25804-P39.minimised.mol

>  <scratch_subdir>  (761) 
/opt/xchem-fragalysis-2/maxwin/BulkDock/SCRATCH/511016/C25804-P39

>  <fragmenstein_runtime>  (761) 
31.55281400680542

>  <fragmenstein_outcome>  (761) 
too moved

>  <fragmenstein_mode>  (761) 
expansion

>  <fragmenstein_error>  (761) 


$$$$
C25805-P66
     RDKit          3D

 35 37  0  0  0  0  0  0  0  0999 V2000
   -8.4748   -8.6430   23.8392 C   0  0  0  0  0  0  0  0  0  0  0  0
   -8.2475   -9.9162   23.0793 C   0  0  0  0  0  0  0  0  0  0  0  0
   -7.6472   -9.7009   21.4602 S   0  0  0  0  0  0  0  0  0  0  0  0
   -7.3557  -11.3602   21.3050 C   0  0  0  0  0  0  0  0  0  0  0  0
   -7.8043  -12.0717   22.4005 C   0  0  0  0  0  0  0  0  0  0  0  0
   -8.3537  -11.2714   23.4713 C   0  0  0  0  0  0  0  0  0  0  0  0
   -8.9768  -11.8430   24.8443 C   0  0  0  0  0  0  0  0  0  0  0  0
   -8.8206  -13.3645   25.2511 C   0  0  0  0  0  0  0  0  0  0  0  0
   -8.1479  -14.1779   24.6278 O   0  0  0  0  0  0  0  0  0  0  0  0
   -9.5040  -13.7233   26.4350 O   0  0  0  0  0  0  0  0  0  0  0  0
   -9.1148  -15.0139   27.0909 C   0  0  0  0  0  0  0  0  0  0  0  0
  -10.1118  -15.8844   27.9337 C   0  0  0  0  0  0  0  0  0  0  0  0
  -11.2492  -15.4290   28.5874 C   0  0  0  0  0  0  0  0  0  0  0  0
  -12.2243  -16.3390   29.1569 C   0  0  0  0  0  0  0  0  0  0  0  0
  -12.1057  -17.8266   28.9146 C   0  0  0  0  0  0  0  0  0  0  0  0
  -12.8067  -19.3989   29.0842 N   0  0  0  0  0  0  0  0  0  0  0  0
  -12.1411  -20.6464   29.2897 C   0  0  0  0  0  0  0  0  0  0  0  0
  -10.8433  -20.2266   29.4080 C   0  0  0  0  0  0  0  0  0  0  0  0
  -10.8426  -18.2193   28.8609 C   0  0  0  0  0  0  0  0  0  0  0  0
   -9.8421  -17.2558   28.1853 C   0  0  0  0  0  0  0  0  0  0  0  0
   -7.8015   -7.8299   23.5515 H   0  0  0  0  0  0  0  0  0  0  0  0
   -8.3651   -8.8123   24.9145 H   0  0  0  0  0  0  0  0  0  0  0  0
   -9.5013   -8.3002   23.6674 H   0  0  0  0  0  0  0  0  0  0  0  0
   -6.9175  -11.7417   20.3962 H   0  0  0  0  0  0  0  0  0  0  0  0
   -7.7631  -13.1508   22.4375 H   0  0  0  0  0  0  0  0  0  0  0  0
  -10.0519  -11.6336   24.7960 H   0  0  0  0  0  0  0  0  0  0  0  0
   -8.5284  -11.2559   25.6545 H   0  0  0  0  0  0  0  0  0  0  0  0
   -8.2885  -14.7546   27.7631 H   0  0  0  0  0  0  0  0  0  0  0  0
   -8.7267  -15.6802   26.3122 H   0  0  0  0  0  0  0  0  0  0  0  0
  -11.4735  -14.3633   28.6077 H   0  0  0  0  0  0  0  0  0  0  0  0
  -13.1130  -15.8646   29.5649 H   0  0  0  0  0  0  0  0  0  0  0  0
  -13.7955  -19.4156   29.2489 H   0  0  0  0  0  0  0  0  0  0  0  0
  -12.6238  -21.6118   29.3194 H   0  0  0  0  0  0  0  0  0  0  0  0
  -10.1514  -20.9840   29.1756 H   0  0  0  0  0  0  0  0  0  0  0  0
   -8.8728  -17.6611   27.8967 H   0  0  0  0  0  0  0  0  0  0  0  0
  1  2  1  0
  2  3  1  0
  3  4  1  0
  4  5  2  0
  5  6  1  0
  6  7  1  0
  7  8  1  0
  8  9  2  0
  8 10  1  0
 10 11  1  0
 11 12  1  0
 12 13  2  0
 13 14  1  0
 14 15  2  0
 15 16  1  0
 16 17  1  0
 17 18  2  0
 18 19  1  0
 19 20  2  0
  6  2  2  0
 20 12  1  0
 19 15  1  0
  1 21  1  0
  1 22  1  0
  1 23  1  0
  4 24  1  0
  5 25  1  0
  7 26  1  0
  7 27  1  0
 11 28  1  0
 11 29  1  0
 13 30  1  0
 14 31  1  0
 16 32  1  0
 17 33  1  0
 18 34  1  0
 20 35  1  0
M  END
>  <Energy>  (762) 
263.94346917644754

>  <compound_id>  (762) 
25805

>  <target_id>  (762) 
1

>  <reference_id>  (762) 
66

>  <inspiration_ids>  (762) 
[66, 39]

>  <energy_score>  (762) 
198.52641956174432

>  <distance_score>  (762) 
17.237004559397683

>  <path>  (762) 
/opt/xchem-fragalysis-2/maxwin/BulkDock/SCRATCH/511016/C25805-P66/C25805-P66.minimised.mol

>  <scratch_subdir>  (762) 
/opt/xchem-fragalysis-2/maxwin/BulkDock/SCRATCH/511016/C25805-P66

>  <fragmenstein_runtime>  (762) 
19.59818959236145

>  <fragmenstein_outcome>  (762) 
too moved

>  <fragmenstein_mode>  (762) 
expansion

>  <fragmenstein_error>  (762) 


$$$$
C25805-P39
     RDKit          3D

 35 37  0  0  0  0  0  0  0  0999 V2000
    3.6853  -12.7973   29.2826 C   0  0  0  0  0  0  0  0  0  0  0  0
    3.4640  -13.8708   28.1954 C   0  0  0  0  0  0  0  0  0  0  0  0
    4.7326  -15.0815   28.3234 S   0  0  0  0  0  0  0  0  0  0  0  0
    5.1349  -14.9464   26.6958 C   0  0  0  0  0  0  0  0  0  0  0  0
    4.0411  -14.4603   26.0399 C   0  0  0  0  0  0  0  0  0  0  0  0
    2.6033  -14.0251   26.9696 C   0  0  0  0  0  0  0  0  0  0  0  0
    0.9460  -13.3951   26.0461 C   0  0  0  0  0  0  0  0  0  0  0  0
   -1.0058  -13.7221   25.3085 C   0  0  0  0  0  0  0  0  0  0  0  0
   -2.0443  -13.0346   25.4993 O   0  0  0  0  0  0  0  0  0  0  0  0
   -1.2715  -15.0017   24.5275 O   0  0  0  0  0  0  0  0  0  0  0  0
   -2.6380  -15.6904   24.8157 C   0  0  0  0  0  0  0  0  0  0  0  0
   -3.1225  -17.1433   25.5265 C   0  0  0  0  0  0  0  0  0  0  0  0
   -4.4435  -17.5446   25.2623 C   0  0  0  0  0  0  0  0  0  0  0  0
   -5.0304  -18.6657   25.8673 C   0  0  0  0  0  0  0  0  0  0  0  0
   -4.2218  -19.5536   26.5859 C   0  0  0  0  0  0  0  0  0  0  0  0
   -4.4165  -20.8168   27.0955 N   0  0  0  0  0  0  0  0  0  0  0  0
   -3.3028  -21.2723   27.7402 C   0  0  0  0  0  0  0  0  0  0  0  0
   -2.3615  -20.2804   27.6649 C   0  0  0  0  0  0  0  0  0  0  0  0
   -2.9138  -19.2239   26.8899 C   0  0  0  0  0  0  0  0  0  0  0  0
   -2.4050  -17.9929   26.4166 C   0  0  0  0  0  0  0  0  0  0  0  0
    3.6127  -13.2580   30.2757 H   0  0  0  0  0  0  0  0  0  0  0  0
    4.6932  -12.3718   29.1958 H   0  0  0  0  0  0  0  0  0  0  0  0
    2.9815  -11.9614   29.2653 H   0  0  0  0  0  0  0  0  0  0  0  0
    6.0554  -15.3307   26.2795 H   0  0  0  0  0  0  0  0  0  0  0  0
    3.9993  -14.3697   24.9616 H   0  0  0  0  0  0  0  0  0  0  0  0
    1.5613  -13.2080   25.1497 H   0  0  0  0  0  0  0  0  0  0  0  0
    0.9187  -12.3912   26.4785 H   0  0  0  0  0  0  0  0  0  0  0  0
   -3.2793  -15.5549   23.9440 H   0  0  0  0  0  0  0  0  0  0  0  0
   -2.8507  -14.9565   25.5081 H   0  0  0  0  0  0  0  0  0  0  0  0
   -5.0738  -16.9344   24.6158 H   0  0  0  0  0  0  0  0  0  0  0  0
   -6.0891  -18.8064   25.7288 H   0  0  0  0  0  0  0  0  0  0  0  0
   -5.2224  -21.3949   26.9587 H   0  0  0  0  0  0  0  0  0  0  0  0
   -3.2717  -22.2528   28.1943 H   0  0  0  0  0  0  0  0  0  0  0  0
   -1.3637  -20.3237   28.0814 H   0  0  0  0  0  0  0  0  0  0  0  0
   -1.3990  -17.8188   26.7662 H   0  0  0  0  0  0  0  0  0  0  0  0
  1  2  1  0
  2  3  1  0
  3  4  1  0
  4  5  2  0
  5  6  1  0
  6  7  1  0
  7  8  1  0
  8  9  2  0
  8 10  1  0
 10 11  1  0
 11 12  1  0
 12 13  2  0
 13 14  1  0
 14 15  2  0
 15 16  1  0
 16 17  1  0
 17 18  2  0
 18 19  1  0
 19 20  2  0
  6  2  2  0
 20 12  1  0
 19 15  1  0
  1 21  1  0
  1 22  1  0
  1 23  1  0
  4 24  1  0
  5 25  1  0
  7 26  1  0
  7 27  1  0
 11 28  1  0
 11 29  1  0
 13 30  1  0
 14 31  1  0
 16 32  1  0
 17 33  1  0
 18 34  1  0
 20 35  1  0
M  END
>  <Energy>  (763) 
363.31527324043816

>  <compound_id>  (763) 
25805

>  <target_id>  (763) 
1

>  <reference_id>  (763) 
39

>  <inspiration_ids>  (763) 
[66, 39]

>  <energy_score>  (763) 
297.8982236257342

>  <distance_score>  (763) 
15.661404506809507

>  <path>  (763) 
/opt/xchem-fragalysis-2/maxwin/BulkDock/SCRATCH/511016/C25805-P39/C25805-P39.minimised.mol

>  <scratch_subdir>  (763) 
/opt/xchem-fragalysis-2/maxwin/BulkDock/SCRATCH/511016/C25805-P39

>  <fragmenstein_runtime>  (763) 
13.71925401687622

>  <fragmenstein_outcome>  (763) 
too moved

>  <fragmenstein_mode>  (763) 
expansion

>  <fragmenstein_error>  (763) 


$$$$
C25806-P66
     RDKit          3D

 38 40  0  0  0  0  0  0  0  0999 V2000
    4.7312  -13.0666   19.5838 C   0  0  0  0  0  0  0  0  0  0  0  0
    3.5644  -13.9944   18.9244 C   0  0  0  0  0  0  0  0  0  0  0  0
    3.3631  -15.1140   18.2170 C   0  0  0  0  0  0  0  0  0  0  0  0
    1.9867  -14.9788   18.3788 C   0  0  0  0  0  0  0  0  0  0  0  0
    0.9231  -15.9946   19.4947 C   0  0  0  0  0  0  0  0  0  0  0  0
   -0.9955  -16.1489   19.7819 C   0  0  0  0  0  0  0  0  0  0  0  0
   -1.5603  -17.5187   20.0026 N   0  0  0  0  0  0  0  0  0  0  0  0
   -0.5716  -17.5103   21.0826 C   0  0  0  0  0  0  0  0  0  0  0  0
   -2.9528  -17.9630   20.5428 C   0  0  0  0  0  0  0  0  0  0  0  0
   -3.8219  -17.2942   20.9720 O   0  0  0  0  0  0  0  0  0  0  0  0
   -2.8313  -19.4372   20.4640 N   0  0  0  0  0  0  0  0  0  0  0  0
   -3.6694  -20.4617   20.9653 C   0  0  0  0  0  0  0  0  0  0  0  0
   -4.2030  -20.2388   22.2415 C   0  0  0  0  0  0  0  0  0  0  0  0
   -4.5822  -21.2947   23.0746 C   0  0  0  0  0  0  0  0  0  0  0  0
   -4.7004  -22.5646   22.5271 C   0  0  0  0  0  0  0  0  0  0  0  0
   -5.1428  -23.7450   23.0810 N   0  0  0  0  0  0  0  0  0  0  0  0
   -5.0312  -24.7515   22.1626 C   0  0  0  0  0  0  0  0  0  0  0  0
   -4.5235  -24.2108   21.0026 C   0  0  0  0  0  0  0  0  0  0  0  0
   -4.2923  -22.8226   21.2210 C   0  0  0  0  0  0  0  0  0  0  0  0
   -3.6976  -21.7688   20.4633 C   0  0  0  0  0  0  0  0  0  0  0  0
    2.2934  -14.7837   20.4618 S   0  0  0  0  0  0  0  0  0  0  0  0
    4.4515  -12.7688   20.5952 H   0  0  0  0  0  0  0  0  0  0  0  0
    5.6404  -13.6354   19.6930 H   0  0  0  0  0  0  0  0  0  0  0  0
    5.0805  -12.2003   19.0707 H   0  0  0  0  0  0  0  0  0  0  0  0
    4.0820  -15.1913   17.4469 H   0  0  0  0  0  0  0  0  0  0  0  0
    1.4509  -14.3245   17.6734 H   0  0  0  0  0  0  0  0  0  0  0  0
   -1.5930  -15.5121   20.4425 H   0  0  0  0  0  0  0  0  0  0  0  0
   -1.5068  -15.7472   18.8889 H   0  0  0  0  0  0  0  0  0  0  0  0
   -0.8256  -18.3307   21.7491 H   0  0  0  0  0  0  0  0  0  0  0  0
    0.4232  -17.7430   20.8029 H   0  0  0  0  0  0  0  0  0  0  0  0
   -0.3294  -16.5874   21.6009 H   0  0  0  0  0  0  0  0  0  0  0  0
   -1.9869  -19.6748   19.9573 H   0  0  0  0  0  0  0  0  0  0  0  0
   -4.1777  -19.2469   22.6762 H   0  0  0  0  0  0  0  0  0  0  0  0
   -4.7130  -21.1260   24.1305 H   0  0  0  0  0  0  0  0  0  0  0  0
   -5.4876  -23.8569   24.0256 H   0  0  0  0  0  0  0  0  0  0  0  0
   -5.3053  -25.7649   22.4121 H   0  0  0  0  0  0  0  0  0  0  0  0
   -4.3063  -24.7606   20.0963 H   0  0  0  0  0  0  0  0  0  0  0  0
   -3.2596  -21.9917   19.4949 H   0  0  0  0  0  0  0  0  0  0  0  0
  1  2  1  0
  2  3  2  0
  3  4  1  0
  4  5  2  0
  5  6  1  0
  6  7  1  0
  7  8  1  0
  7  9  1  0
  9 10  2  0
  9 11  1  0
 11 12  1  0
 12 13  2  0
 13 14  1  0
 14 15  2  0
 15 16  1  0
 16 17  1  0
 17 18  2  0
 18 19  1  0
 19 20  2  0
  5 21  1  0
 21  2  1  0
 20 12  1  0
 19 15  1  0
  1 22  1  0
  1 23  1  0
  1 24  1  0
  3 25  1  0
  4 26  1  0
  6 27  1  0
  6 28  1  0
  8 29  1  0
  8 30  1  0
  8 31  1  0
 11 32  1  0
 13 33  1  0
 14 34  1  0
 16 35  1  0
 17 36  1  0
 18 37  1  0
 20 38  1  0
M  END
>  <Energy>  (764) 
342.60194191910671

>  <compound_id>  (764) 
25806

>  <target_id>  (764) 
1

>  <reference_id>  (764) 
66

>  <inspiration_ids>  (764) 
[66, 39]

>  <energy_score>  (764) 
355.7106674968028

>  <distance_score>  (764) 
14.31166048782941

>  <path>  (764) 
/opt/xchem-fragalysis-2/maxwin/BulkDock/SCRATCH/511016/C25806-P66/C25806-P66.minimised.mol

>  <scratch_subdir>  (764) 
/opt/xchem-fragalysis-2/maxwin/BulkDock/SCRATCH/511016/C25806-P66

>  <fragmenstein_runtime>  (764) 
23.157153844833374

>  <fragmenstein_outcome>  (764) 
too moved

>  <fragmenstein_mode>  (764) 
expansion

>  <fragmenstein_error>  (764) 


$$$$
C25806-P39
     RDKit          3D

 38 40  0  0  0  0  0  0  0  0999 V2000
    1.6623   -6.1158   18.2680 C   0  0  0  0  0  0  0  0  0  0  0  0
    0.3227   -6.8160   18.3044 C   0  0  0  0  0  0  0  0  0  0  0  0
   -0.4474   -7.2280   17.2367 C   0  0  0  0  0  0  0  0  0  0  0  0
   -1.7018   -7.8288   17.6338 C   0  0  0  0  0  0  0  0  0  0  0  0
   -1.8927   -7.8933   19.0068 C   0  0  0  0  0  0  0  0  0  0  0  0
   -3.1557   -8.2660   19.8914 C   0  0  0  0  0  0  0  0  0  0  0  0
   -4.1180   -9.5453   19.8816 N   0  0  0  0  0  0  0  0  0  0  0  0
   -2.8382  -10.2467   20.1697 C   0  0  0  0  0  0  0  0  0  0  0  0
   -5.2242   -9.9952   20.9081 C   0  0  0  0  0  0  0  0  0  0  0  0
   -5.5025   -9.5122   21.9498 O   0  0  0  0  0  0  0  0  0  0  0  0
   -5.7486  -11.2573   20.2413 N   0  0  0  0  0  0  0  0  0  0  0  0
   -6.6674  -12.2834   20.7319 C   0  0  0  0  0  0  0  0  0  0  0  0
   -7.0496  -13.3187   19.8669 C   0  0  0  0  0  0  0  0  0  0  0  0
   -7.7103  -14.5040   20.2916 C   0  0  0  0  0  0  0  0  0  0  0  0
   -7.9824  -14.6672   21.6518 C   0  0  0  0  0  0  0  0  0  0  0  0
   -8.5344  -15.7306   22.3390 N   0  0  0  0  0  0  0  0  0  0  0  0
   -8.5848  -15.4476   23.6778 C   0  0  0  0  0  0  0  0  0  0  0  0
   -8.0769  -14.1748   23.8490 C   0  0  0  0  0  0  0  0  0  0  0  0
   -7.6861  -13.6605   22.5692 C   0  0  0  0  0  0  0  0  0  0  0  0
   -7.0679  -12.4465   22.0875 C   0  0  0  0  0  0  0  0  0  0  0  0
   -0.4737   -7.1962   19.7840 S   0  0  0  0  0  0  0  0  0  0  0  0
    1.9712   -5.7756   19.2607 H   0  0  0  0  0  0  0  0  0  0  0  0
    1.6025   -5.2385   17.6154 H   0  0  0  0  0  0  0  0  0  0  0  0
    2.4254   -6.7900   17.8673 H   0  0  0  0  0  0  0  0  0  0  0  0
   -0.1505   -7.0901   16.2040 H   0  0  0  0  0  0  0  0  0  0  0  0
   -2.4527   -8.1649   16.9289 H   0  0  0  0  0  0  0  0  0  0  0  0
   -3.8817   -7.4887   19.6012 H   0  0  0  0  0  0  0  0  0  0  0  0
   -2.9634   -8.0086   20.9477 H   0  0  0  0  0  0  0  0  0  0  0  0
   -3.0979  -11.3028   20.3119 H   0  0  0  0  0  0  0  0  0  0  0  0
   -2.3507   -9.9725   21.1154 H   0  0  0  0  0  0  0  0  0  0  0  0
   -2.1815  -10.2874   19.2960 H   0  0  0  0  0  0  0  0  0  0  0  0
   -5.3563  -11.3327   19.3148 H   0  0  0  0  0  0  0  0  0  0  0  0
   -6.8001  -13.2387   18.8094 H   0  0  0  0  0  0  0  0  0  0  0  0
   -7.9539  -15.2769   19.5681 H   0  0  0  0  0  0  0  0  0  0  0  0
   -8.8283  -16.5968   21.9078 H   0  0  0  0  0  0  0  0  0  0  0  0
   -8.9694  -16.1644   24.3894 H   0  0  0  0  0  0  0  0  0  0  0  0
   -7.9748  -13.6572   24.7943 H   0  0  0  0  0  0  0  0  0  0  0  0
   -6.7970  -11.6827   22.8145 H   0  0  0  0  0  0  0  0  0  0  0  0
  1  2  1  0
  2  3  2  0
  3  4  1  0
  4  5  2  0
  5  6  1  0
  6  7  1  0
  7  8  1  0
  7  9  1  0
  9 10  2  0
  9 11  1  0
 11 12  1  0
 12 13  2  0
 13 14  1  0
 14 15  2  0
 15 16  1  0
 16 17  1  0
 17 18  2  0
 18 19  1  0
 19 20  2  0
  5 21  1  0
 21  2  1  0
 20 12  1  0
 19 15  1  0
  1 22  1  0
  1 23  1  0
  1 24  1  0
  3 25  1  0
  4 26  1  0
  6 27  1  0
  6 28  1  0
  8 29  1  0
  8 30  1  0
  8 31  1  0
 11 32  1  0
 13 33  1  0
 14 34  1  0
 16 35  1  0
 17 36  1  0
 18 37  1  0
 20 38  1  0
M  END
>  <Energy>  (765) 
60.081667068198108

>  <compound_id>  (765) 
25806

>  <target_id>  (765) 
1

>  <reference_id>  (765) 
39

>  <inspiration_ids>  (765) 
[66, 39]

>  <energy_score>  (765) 
73.19039264589742

>  <distance_score>  (765) 
14.979864148503058

>  <path>  (765) 
/opt/xchem-fragalysis-2/maxwin/BulkDock/SCRATCH/511016/C25806-P39/C25806-P39.minimised.mol

>  <scratch_subdir>  (765) 
/opt/xchem-fragalysis-2/maxwin/BulkDock/SCRATCH/511016/C25806-P39

>  <fragmenstein_runtime>  (765) 
37.30841684341431

>  <fragmenstein_outcome>  (765) 
too moved

>  <fragmenstein_mode>  (765) 
expansion

>  <fragmenstein_error>  (765) 


$$$$
C25807-P66
     RDKit          3D

 39 41  0  0  0  0  0  0  0  0999 V2000
    8.1373   -7.5752   23.6952 C   0  0  0  0  0  0  0  0  0  0  0  0
    7.3662   -8.8114   23.3934 C   0  0  0  0  0  0  0  0  0  0  0  0
    7.8197  -10.0873   23.4423 C   0  0  0  0  0  0  0  0  0  0  0  0
    6.7314  -11.0144   23.5011 C   0  0  0  0  0  0  0  0  0  0  0  0
    5.4202  -10.6817   22.9756 C   0  0  0  0  0  0  0  0  0  0  0  0
    3.7285  -11.7917   22.7330 C   0  0  0  0  0  0  0  0  0  0  0  0
    2.4005  -12.7982   23.8844 C   0  0  0  0  0  0  0  0  0  0  0  0
    0.6995  -14.0218   23.9994 C   0  0  0  0  0  0  0  0  0  0  0  0
   -1.1668  -14.0605   24.8473 C   0  0  0  0  0  0  0  0  0  0  0  0
   -1.4595  -13.0968   25.4509 O   0  0  0  0  0  0  0  0  0  0  0  0
   -2.0142  -15.2757   24.6663 N   0  0  0  0  0  0  0  0  0  0  0  0
   -3.3506  -15.6563   25.2446 C   0  0  0  0  0  0  0  0  0  0  0  0
   -4.3503  -16.3687   24.5570 C   0  0  0  0  0  0  0  0  0  0  0  0
   -5.4297  -17.0531   25.1727 C   0  0  0  0  0  0  0  0  0  0  0  0
   -5.4761  -17.0591   26.5623 C   0  0  0  0  0  0  0  0  0  0  0  0
   -6.3201  -17.6959   27.4424 N   0  0  0  0  0  0  0  0  0  0  0  0
   -5.9474  -17.4429   28.7296 C   0  0  0  0  0  0  0  0  0  0  0  0
   -4.8668  -16.5928   28.6842 C   0  0  0  0  0  0  0  0  0  0  0  0
   -4.5541  -16.3400   27.3166 C   0  0  0  0  0  0  0  0  0  0  0  0
   -3.5325  -15.5974   26.6459 C   0  0  0  0  0  0  0  0  0  0  0  0
    5.7044   -8.7654   23.1656 S   0  0  0  0  0  0  0  0  0  0  0  0
    7.6175   -6.6706   23.3656 H   0  0  0  0  0  0  0  0  0  0  0  0
    9.1234   -7.6100   23.2215 H   0  0  0  0  0  0  0  0  0  0  0  0
    8.2927   -7.4898   24.7766 H   0  0  0  0  0  0  0  0  0  0  0  0
    8.8432  -10.3441   23.6919 H   0  0  0  0  0  0  0  0  0  0  0  0
    6.9754  -11.9649   23.9375 H   0  0  0  0  0  0  0  0  0  0  0  0
    3.2420  -10.8537   22.8013 H   0  0  0  0  0  0  0  0  0  0  0  0
    3.8597  -12.3219   21.7871 H   0  0  0  0  0  0  0  0  0  0  0  0
    1.9919  -11.9841   24.4292 H   0  0  0  0  0  0  0  0  0  0  0  0
    3.1300  -13.4338   24.3742 H   0  0  0  0  0  0  0  0  0  0  0  0
    1.3226  -14.7584   23.5342 H   0  0  0  0  0  0  0  0  0  0  0  0
    0.0352  -13.9605   23.0802 H   0  0  0  0  0  0  0  0  0  0  0  0
   -1.5628  -15.8689   24.0659 H   0  0  0  0  0  0  0  0  0  0  0  0
   -4.3294  -16.4431   23.4757 H   0  0  0  0  0  0  0  0  0  0  0  0
   -6.1488  -17.5959   24.5688 H   0  0  0  0  0  0  0  0  0  0  0  0
   -7.0850  -18.2915   27.1849 H   0  0  0  0  0  0  0  0  0  0  0  0
   -6.4681  -17.8826   29.5709 H   0  0  0  0  0  0  0  0  0  0  0  0
   -4.3371  -16.2062   29.5459 H   0  0  0  0  0  0  0  0  0  0  0  0
   -2.8009  -15.0974   27.2708 H   0  0  0  0  0  0  0  0  0  0  0  0
  1  2  1  0
  2  3  2  0
  3  4  1  0
  4  5  2  0
  5  6  1  0
  6  7  1  0
  7  8  1  0
  8  9  1  0
  9 10  2  0
  9 11  1  0
 11 12  1  0
 12 13  2  0
 13 14  1  0
 14 15  2  0
 15 16  1  0
 16 17  1  0
 17 18  2  0
 18 19  1  0
 19 20  2  0
  5 21  1  0
 21  2  1  0
 20 12  1  0
 19 15  1  0
  1 22  1  0
  1 23  1  0
  1 24  1  0
  3 25  1  0
  4 26  1  0
  6 27  1  0
  6 28  1  0
  7 29  1  0
  7 30  1  0
  8 31  1  0
  8 32  1  0
 11 33  1  0
 13 34  1  0
 14 35  1  0
 16 36  1  0
 17 37  1  0
 18 38  1  0
 20 39  1  0
M  END
>  <Energy>  (766) 
441.15295261993543

>  <compound_id>  (766) 
25807

>  <target_id>  (766) 
1

>  <reference_id>  (766) 
66

>  <inspiration_ids>  (766) 
[66, 39]

>  <energy_score>  (766) 
386.57048566152685

>  <distance_score>  (766) 
13.437751382467962

>  <path>  (766) 
/opt/xchem-fragalysis-2/maxwin/BulkDock/SCRATCH/511016/C25807-P66/C25807-P66.minimised.mol

>  <scratch_subdir>  (766) 
/opt/xchem-fragalysis-2/maxwin/BulkDock/SCRATCH/511016/C25807-P66

>  <fragmenstein_runtime>  (766) 
34.853235960006714

>  <fragmenstein_outcome>  (766) 
too moved

>  <fragmenstein_mode>  (766) 
expansion

>  <fragmenstein_error>  (766) 


$$$$
C25807-P39
     RDKit          3D

 39 41  0  0  0  0  0  0  0  0999 V2000
    8.2855  -10.4848   26.4691 C   0  0  0  0  0  0  0  0  0  0  0  0
    7.1654  -11.3015   27.0177 C   0  0  0  0  0  0  0  0  0  0  0  0
    6.4506  -11.0975   28.1695 C   0  0  0  0  0  0  0  0  0  0  0  0
    5.4429  -12.1040   28.4279 C   0  0  0  0  0  0  0  0  0  0  0  0
    5.2962  -13.1115   27.4339 C   0  0  0  0  0  0  0  0  0  0  0  0
    3.9975  -14.4435   27.0133 C   0  0  0  0  0  0  0  0  0  0  0  0
    3.6076  -16.1989   27.5239 C   0  0  0  0  0  0  0  0  0  0  0  0
    2.2332  -17.0942   28.0651 C   0  0  0  0  0  0  0  0  0  0  0  0
    1.3087  -18.3203   27.7087 C   0  0  0  0  0  0  0  0  0  0  0  0
    1.5108  -19.0839   26.8093 O   0  0  0  0  0  0  0  0  0  0  0  0
    0.1616  -18.2124   28.6474 N   0  0  0  0  0  0  0  0  0  0  0  0
   -1.0606  -18.9103   28.6951 C   0  0  0  0  0  0  0  0  0  0  0  0
   -1.7791  -18.8129   29.9011 C   0  0  0  0  0  0  0  0  0  0  0  0
   -3.1674  -18.9643   29.9635 C   0  0  0  0  0  0  0  0  0  0  0  0
   -3.8137  -19.0840   28.7399 C   0  0  0  0  0  0  0  0  0  0  0  0
   -5.1460  -18.9360   28.4520 N   0  0  0  0  0  0  0  0  0  0  0  0
   -5.3364  -19.0083   27.1030 C   0  0  0  0  0  0  0  0  0  0  0  0
   -4.1352  -19.3481   26.5219 C   0  0  0  0  0  0  0  0  0  0  0  0
   -3.1402  -19.3048   27.5394 C   0  0  0  0  0  0  0  0  0  0  0  0
   -1.7209  -19.3165   27.5299 C   0  0  0  0  0  0  0  0  0  0  0  0
    6.6464  -12.6849   26.1820 S   0  0  0  0  0  0  0  0  0  0  0  0
    8.4980   -9.6272   27.1161 H   0  0  0  0  0  0  0  0  0  0  0  0
    8.0345  -10.0994   25.4753 H   0  0  0  0  0  0  0  0  0  0  0  0
    9.2005  -11.0814   26.3928 H   0  0  0  0  0  0  0  0  0  0  0  0
    6.6394  -10.2690   28.8429 H   0  0  0  0  0  0  0  0  0  0  0  0
    4.8116  -12.0415   29.3029 H   0  0  0  0  0  0  0  0  0  0  0  0
    4.2096  -14.5466   25.9307 H   0  0  0  0  0  0  0  0  0  0  0  0
    3.0108  -14.0022   27.1282 H   0  0  0  0  0  0  0  0  0  0  0  0
    3.6718  -16.7519   26.6114 H   0  0  0  0  0  0  0  0  0  0  0  0
    4.2523  -16.5268   28.2932 H   0  0  0  0  0  0  0  0  0  0  0  0
    1.5392  -16.3288   28.4031 H   0  0  0  0  0  0  0  0  0  0  0  0
    2.6841  -17.6580   28.9098 H   0  0  0  0  0  0  0  0  0  0  0  0
    0.3617  -17.5017   29.3376 H   0  0  0  0  0  0  0  0  0  0  0  0
   -1.2613  -18.5288   30.8156 H   0  0  0  0  0  0  0  0  0  0  0  0
   -3.7128  -18.8217   30.8910 H   0  0  0  0  0  0  0  0  0  0  0  0
   -5.8610  -18.7969   29.1581 H   0  0  0  0  0  0  0  0  0  0  0  0
   -6.3071  -18.8149   26.6802 H   0  0  0  0  0  0  0  0  0  0  0  0
   -3.9625  -19.4820   25.4622 H   0  0  0  0  0  0  0  0  0  0  0  0
   -1.1886  -19.3853   26.5868 H   0  0  0  0  0  0  0  0  0  0  0  0
  1  2  1  0
  2  3  2  0
  3  4  1  0
  4  5  2  0
  5  6  1  0
  6  7  1  0
  7  8  1  0
  8  9  1  0
  9 10  2  0
  9 11  1  0
 11 12  1  0
 12 13  2  0
 13 14  1  0
 14 15  2  0
 15 16  1  0
 16 17  1  0
 17 18  2  0
 18 19  1  0
 19 20  2  0
  5 21  1  0
 21  2  1  0
 20 12  1  0
 19 15  1  0
  1 22  1  0
  1 23  1  0
  1 24  1  0
  3 25  1  0
  4 26  1  0
  6 27  1  0
  6 28  1  0
  7 29  1  0
  7 30  1  0
  8 31  1  0
  8 32  1  0
 11 33  1  0
 13 34  1  0
 14 35  1  0
 16 36  1  0
 17 37  1  0
 18 38  1  0
 20 39  1  0
M  END
>  <Energy>  (767) 
182.37083070915219

>  <compound_id>  (767) 
25807

>  <target_id>  (767) 
1

>  <reference_id>  (767) 
39

>  <inspiration_ids>  (767) 
[66, 39]

>  <energy_score>  (767) 
127.78836375074798

>  <distance_score>  (767) 
14.804237351934214

>  <path>  (767) 
/opt/xchem-fragalysis-2/maxwin/BulkDock/SCRATCH/511016/C25807-P39/C25807-P39.minimised.mol

>  <scratch_subdir>  (767) 
/opt/xchem-fragalysis-2/maxwin/BulkDock/SCRATCH/511016/C25807-P39

>  <fragmenstein_runtime>  (767) 
43.796772718429565

>  <fragmenstein_outcome>  (767) 
too moved

>  <fragmenstein_mode>  (767) 
expansion

>  <fragmenstein_error>  (767) 


$$$$
C25808-P66
     RDKit          3D

 43 45  0  0  0  0  0  0  0  0999 V2000
   -0.6292  -17.0648   32.5816 C   0  0  0  0  0  0  0  0  0  0  0  0
   -0.2027  -17.1205   31.2270 O   0  0  0  0  0  0  0  0  0  0  0  0
   -0.5817  -15.9393   30.4988 C   0  0  0  0  0  0  0  0  0  0  0  0
   -0.2627  -16.1480   28.9686 C   0  0  0  0  0  0  0  0  0  0  0  0
   -0.4293  -14.7324   27.9249 N   0  0  0  0  0  0  0  0  0  0  0  0
    0.9196  -13.7218   26.8035 C   0  0  0  0  0  0  0  0  0  0  0  0
    2.0718  -14.0698   26.8796 O   0  0  0  0  0  0  0  0  0  0  0  0
    0.8430  -12.5248   25.9821 C   0  0  0  0  0  0  0  0  0  0  0  0
    2.0727  -11.4156   24.9674 C   0  0  0  0  0  0  0  0  0  0  0  0
    3.0289  -10.9819   23.3704 C   0  0  0  0  0  0  0  0  0  0  0  0
    5.0667   -9.5583   23.8809 S   0  0  0  0  0  0  0  0  0  0  0  0
    4.5954   -9.3749   26.3623 C   0  0  0  0  0  0  0  0  0  0  0  0
    5.6902   -8.6885   27.1479 C   0  0  0  0  0  0  0  0  0  0  0  0
    2.7589  -10.2396   26.6175 C   0  0  0  0  0  0  0  0  0  0  0  0
   -1.4263  -17.2397   28.5668 C   0  0  0  0  0  0  0  0  0  0  0  0
   -2.7810  -16.9879   28.8632 C   0  0  0  0  0  0  0  0  0  0  0  0
   -3.8372  -17.8697   28.5655 C   0  0  0  0  0  0  0  0  0  0  0  0
   -3.5068  -19.0581   27.9261 C   0  0  0  0  0  0  0  0  0  0  0  0
   -4.3191  -20.0546   27.4439 N   0  0  0  0  0  0  0  0  0  0  0  0
   -3.5710  -21.0839   26.9470 C   0  0  0  0  0  0  0  0  0  0  0  0
   -2.2465  -20.7187   27.0688 C   0  0  0  0  0  0  0  0  0  0  0  0
   -2.1880  -19.4160   27.6570 C   0  0  0  0  0  0  0  0  0  0  0  0
   -1.1397  -18.4995   27.9907 C   0  0  0  0  0  0  0  0  0  0  0  0
   -0.1889  -16.2001   33.0872 H   0  0  0  0  0  0  0  0  0  0  0  0
   -1.7210  -17.0194   32.6367 H   0  0  0  0  0  0  0  0  0  0  0  0
   -0.2925  -17.9743   33.0861 H   0  0  0  0  0  0  0  0  0  0  0  0
   -0.0192  -15.1281   30.9381 H   0  0  0  0  0  0  0  0  0  0  0  0
   -1.6239  -15.6856   30.7048 H   0  0  0  0  0  0  0  0  0  0  0  0
    0.7410  -16.5711   28.8233 H   0  0  0  0  0  0  0  0  0  0  0  0
   -1.2735  -14.3244   27.8469 H   0  0  0  0  0  0  0  0  0  0  0  0
    0.9947  -11.7875   26.7559 H   0  0  0  0  0  0  0  0  0  0  0  0
    1.4740  -13.1306   25.2972 H   0  0  0  0  0  0  0  0  0  0  0  0
    3.4164  -11.8830   22.9007 H   0  0  0  0  0  0  0  0  0  0  0  0
    5.8256   -7.6662   26.7849 H   0  0  0  0  0  0  0  0  0  0  0  0
    6.6296   -9.2354   27.0307 H   0  0  0  0  0  0  0  0  0  0  0  0
    5.4286   -8.6608   28.2092 H   0  0  0  0  0  0  0  0  0  0  0  0
    2.2616  -10.3198   27.6311 H   0  0  0  0  0  0  0  0  0  0  0  0
   -3.0424  -16.0638   29.3625 H   0  0  0  0  0  0  0  0  0  0  0  0
   -4.8622  -17.6154   28.8154 H   0  0  0  0  0  0  0  0  0  0  0  0
   -5.3238  -19.9976   27.4474 H   0  0  0  0  0  0  0  0  0  0  0  0
   -4.0342  -21.9732   26.5408 H   0  0  0  0  0  0  0  0  0  0  0  0
   -1.3997  -21.3140   26.7534 H   0  0  0  0  0  0  0  0  0  0  0  0
   -0.1083  -18.7758   27.7880 H   0  0  0  0  0  0  0  0  0  0  0  0
  1  2  1  0
  2  3  1  0
  3  4  1  0
  4  5  1  0
  5  6  1  0
  6  7  2  0
  6  8  1  0
  8  9  1  0
  9 10  2  0
 10 11  1  0
 11 12  1  0
 12 13  1  0
 12 14  2  0
  4 15  1  0
 15 16  2  0
 16 17  1  0
 17 18  2  0
 18 19  1  0
 19 20  1  0
 20 21  2  0
 21 22  1  0
 22 23  2  0
 14  9  1  0
 23 15  1  0
 22 18  1  0
  1 24  1  0
  1 25  1  0
  1 26  1  0
  3 27  1  0
  3 28  1  0
  4 29  1  0
  5 30  1  0
  8 31  1  0
  8 32  1  0
 10 33  1  0
 13 34  1  0
 13 35  1  0
 13 36  1  0
 14 37  1  0
 16 38  1  0
 17 39  1  0
 19 40  1  0
 20 41  1  0
 21 42  1  0
 23 43  1  0
M  END
>  <Energy>  (768) 
1093.5750160695059

>  <compound_id>  (768) 
25808

>  <target_id>  (768) 
1

>  <reference_id>  (768) 
66

>  <inspiration_ids>  (768) 
[66, 39]

>  <energy_score>  (768) 
990.0297443447058

>  <distance_score>  (768) 
13.647643250783343

>  <path>  (768) 
/opt/xchem-fragalysis-2/maxwin/BulkDock/SCRATCH/511016/C25808-P66/C25808-P66.minimised.mol

>  <scratch_subdir>  (768) 
/opt/xchem-fragalysis-2/maxwin/BulkDock/SCRATCH/511016/C25808-P66

>  <fragmenstein_runtime>  (768) 
29.80087375640869

>  <fragmenstein_outcome>  (768) 
too moved

>  <fragmenstein_mode>  (768) 
expansion

>  <fragmenstein_error>  (768) 


$$$$
C25808-P39
     RDKit          3D

 43 45  0  0  0  0  0  0  0  0999 V2000
   -7.3089  -17.7356   21.0735 C   0  0  0  0  0  0  0  0  0  0  0  0
   -6.5139  -16.9796   21.9798 O   0  0  0  0  0  0  0  0  0  0  0  0
   -5.9722  -17.8072   23.0211 C   0  0  0  0  0  0  0  0  0  0  0  0
   -5.1345  -16.9228   24.0011 C   0  0  0  0  0  0  0  0  0  0  0  0
   -4.0216  -16.1893   23.2650 N   0  0  0  0  0  0  0  0  0  0  0  0
   -2.7346  -15.4561   23.8097 C   0  0  0  0  0  0  0  0  0  0  0  0
   -2.3836  -15.2405   24.9512 O   0  0  0  0  0  0  0  0  0  0  0  0
   -1.3282  -14.8794   22.4565 C   0  0  0  0  0  0  0  0  0  0  0  0
   -2.1095  -14.4928   20.6831 C   0  0  0  0  0  0  0  0  0  0  0  0
   -2.2843  -15.4476   19.6614 C   0  0  0  0  0  0  0  0  0  0  0  0
   -2.7733  -14.7979   18.1455 S   0  0  0  0  0  0  0  0  0  0  0  0
   -2.8602  -13.1950   18.7193 C   0  0  0  0  0  0  0  0  0  0  0  0
   -3.2483  -12.0853   17.8052 C   0  0  0  0  0  0  0  0  0  0  0  0
   -2.4794  -13.1146   20.0434 C   0  0  0  0  0  0  0  0  0  0  0  0
   -4.7998  -17.8144   25.2104 C   0  0  0  0  0  0  0  0  0  0  0  0
   -5.2633  -17.4644   26.4924 C   0  0  0  0  0  0  0  0  0  0  0  0
   -5.0820  -18.2905   27.6122 C   0  0  0  0  0  0  0  0  0  0  0  0
   -4.4157  -19.5012   27.4138 C   0  0  0  0  0  0  0  0  0  0  0  0
   -4.0276  -20.4630   28.3154 N   0  0  0  0  0  0  0  0  0  0  0  0
   -3.5057  -21.5471   27.6573 C   0  0  0  0  0  0  0  0  0  0  0  0
   -3.4718  -21.2465   26.3177 C   0  0  0  0  0  0  0  0  0  0  0  0
   -3.9916  -19.9319   26.1638 C   0  0  0  0  0  0  0  0  0  0  0  0
   -4.1833  -19.0767   25.0599 C   0  0  0  0  0  0  0  0  0  0  0  0
   -8.1571  -18.1889   21.5955 H   0  0  0  0  0  0  0  0  0  0  0  0
   -7.6917  -17.0587   20.3052 H   0  0  0  0  0  0  0  0  0  0  0  0
   -6.7055  -18.5095   20.5894 H   0  0  0  0  0  0  0  0  0  0  0  0
   -6.7970  -18.2988   23.5500 H   0  0  0  0  0  0  0  0  0  0  0  0
   -5.3410  -18.5703   22.5513 H   0  0  0  0  0  0  0  0  0  0  0  0
   -5.8634  -16.1866   24.2831 H   0  0  0  0  0  0  0  0  0  0  0  0
   -3.9625  -16.2689   22.2585 H   0  0  0  0  0  0  0  0  0  0  0  0
   -0.5296  -14.2409   22.9331 H   0  0  0  0  0  0  0  0  0  0  0  0
   -0.5503  -15.5902   22.0376 H   0  0  0  0  0  0  0  0  0  0  0  0
   -2.0753  -16.5066   19.7203 H   0  0  0  0  0  0  0  0  0  0  0  0
   -4.2212  -12.2821   17.3431 H   0  0  0  0  0  0  0  0  0  0  0  0
   -3.3229  -11.1380   18.3495 H   0  0  0  0  0  0  0  0  0  0  0  0
   -2.5030  -11.9594   17.0130 H   0  0  0  0  0  0  0  0  0  0  0  0
   -2.3571  -12.1533   20.5353 H   0  0  0  0  0  0  0  0  0  0  0  0
   -5.7779  -16.5176   26.6454 H   0  0  0  0  0  0  0  0  0  0  0  0
   -5.4188  -17.9804   28.5977 H   0  0  0  0  0  0  0  0  0  0  0  0
   -4.2060  -20.4025   29.3120 H   0  0  0  0  0  0  0  0  0  0  0  0
   -3.1832  -22.4236   28.2019 H   0  0  0  0  0  0  0  0  0  0  0  0
   -3.0920  -21.8897   25.5350 H   0  0  0  0  0  0  0  0  0  0  0  0
   -3.8837  -19.4462   24.0853 H   0  0  0  0  0  0  0  0  0  0  0  0
  1  2  1  0
  2  3  1  0
  3  4  1  0
  4  5  1  0
  5  6  1  0
  6  7  2  0
  6  8  1  0
  8  9  1  0
  9 10  2  0
 10 11  1  0
 11 12  1  0
 12 13  1  0
 12 14  2  0
  4 15  1  0
 15 16  2  0
 16 17  1  0
 17 18  2  0
 18 19  1  0
 19 20  1  0
 20 21  2  0
 21 22  1  0
 22 23  2  0
 14  9  1  0
 23 15  1  0
 22 18  1  0
  1 24  1  0
  1 25  1  0
  1 26  1  0
  3 27  1  0
  3 28  1  0
  4 29  1  0
  5 30  1  0
  8 31  1  0
  8 32  1  0
 10 33  1  0
 13 34  1  0
 13 35  1  0
 13 36  1  0
 14 37  1  0
 16 38  1  0
 17 39  1  0
 19 40  1  0
 20 41  1  0
 21 42  1  0
 23 43  1  0
M  END
>  <Energy>  (769) 
202.21361814730997

>  <compound_id>  (769) 
25808

>  <target_id>  (769) 
1

>  <reference_id>  (769) 
39

>  <inspiration_ids>  (769) 
[66, 39]

>  <energy_score>  (769) 
98.66834642250456

>  <distance_score>  (769) 
15.086067400335065

>  <path>  (769) 
/opt/xchem-fragalysis-2/maxwin/BulkDock/SCRATCH/511016/C25808-P39/C25808-P39.minimised.mol

>  <scratch_subdir>  (769) 
/opt/xchem-fragalysis-2/maxwin/BulkDock/SCRATCH/511016/C25808-P39

>  <fragmenstein_runtime>  (769) 
23.926270961761475

>  <fragmenstein_outcome>  (769) 
too moved

>  <fragmenstein_mode>  (769) 
expansion

>  <fragmenstein_error>  (769) 


$$$$
C25811-P66
     RDKit          3D

 37 39  0  0  0  0  0  0  0  0999 V2000
    2.5404  -12.3328   23.5414 C   0  0  0  0  0  0  0  0  0  0  0  0
    1.7666  -13.1028   24.4585 C   0  0  0  0  0  0  0  0  0  0  0  0
    1.3961  -12.9110   25.7828 C   0  0  0  0  0  0  0  0  0  0  0  0
    0.1753  -13.2662   26.1397 C   0  0  0  0  0  0  0  0  0  0  0  0
   -1.2871  -13.7737   25.2772 C   0  0  0  0  0  0  0  0  0  0  0  0
   -2.5759  -14.9855   25.8752 C   0  0  0  0  0  0  0  0  0  0  0  0
   -3.3878  -15.2644   25.0237 O   0  0  0  0  0  0  0  0  0  0  0  0
   -2.4349  -15.6641   27.4343 N   0  0  0  0  0  0  0  0  0  0  0  0
   -3.3027  -17.0067   28.1960 C   0  0  0  0  0  0  0  0  0  0  0  0
   -4.4898  -17.4011   29.5450 C   0  0  0  0  0  0  0  0  0  0  0  0
   -4.9916  -16.3710   29.9718 O   0  0  0  0  0  0  0  0  0  0  0  0
   -4.8427  -19.0032   29.9354 N   0  0  0  0  0  0  0  0  0  0  0  0
   -6.1283  -19.6838   30.9743 C   0  0  0  0  0  0  0  0  0  0  0  0
   -6.7022  -18.8299   29.5067 C   0  0  0  0  0  0  0  0  0  0  0  0
   -7.2603  -19.5387   28.0716 C   0  0  0  0  0  0  0  0  0  0  0  0
   -7.8907  -21.2087   27.6801 C   0  0  0  0  0  0  0  0  0  0  0  0
   -9.7105  -21.5066   28.0946 N   0  0  0  0  0  0  0  0  0  0  0  0
  -10.1232  -22.7910   28.3188 C   0  0  0  0  0  0  0  0  0  0  0  0
   -8.8412  -23.2641   28.2844 C   0  0  0  0  0  0  0  0  0  0  0  0
   -7.5560  -22.2004   29.0041 C   0  0  0  0  0  0  0  0  0  0  0  0
   -7.2170  -21.4036   31.1042 C   0  0  0  0  0  0  0  0  0  0  0  0
    0.0513  -14.0604   23.5582 S   0  0  0  0  0  0  0  0  0  0  0  0
    1.9647  -11.7985   22.8110 H   0  0  0  0  0  0  0  0  0  0  0  0
    3.4010  -12.7476   23.1255 H   0  0  0  0  0  0  0  0  0  0  0  0
    2.6325  -11.4902   24.0767 H   0  0  0  0  0  0  0  0  0  0  0  0
    1.4074  -11.9451   26.2661 H   0  0  0  0  0  0  0  0  0  0  0  0
    0.1668  -13.7448   27.0276 H   0  0  0  0  0  0  0  0  0  0  0  0
   -1.7161  -15.1743   27.9505 H   0  0  0  0  0  0  0  0  0  0  0  0
   -2.4571  -17.6647   28.4333 H   0  0  0  0  0  0  0  0  0  0  0  0
   -3.8159  -17.4200   27.3181 H   0  0  0  0  0  0  0  0  0  0  0  0
   -4.3055  -19.6236   29.3453 H   0  0  0  0  0  0  0  0  0  0  0  0
   -6.7272  -17.7371   29.5238 H   0  0  0  0  0  0  0  0  0  0  0  0
   -6.9582  -18.9306   27.2034 H   0  0  0  0  0  0  0  0  0  0  0  0
  -10.2936  -20.7628   27.8109 H   0  0  0  0  0  0  0  0  0  0  0  0
  -11.1064  -23.1279   28.0143 H   0  0  0  0  0  0  0  0  0  0  0  0
   -8.7423  -23.4652   27.2246 H   0  0  0  0  0  0  0  0  0  0  0  0
   -7.2190  -22.1226   29.4587 H   0  0  0  0  0  0  0  0  0  0  0  0
  1  2  1  0
  2  3  2  0
  3  4  1  0
  4  5  2  0
  5  6  1  0
  6  7  2  0
  6  8  1  0
  8  9  1  0
  9 10  1  0
 10 11  2  0
 10 12  1  0
 12 13  1  0
 13 14  2  0
 14 15  1  0
 15 16  2  0
 16 17  1  0
 17 18  1  0
 18 19  2  0
 19 20  1  0
 20 21  2  0
  5 22  1  0
 22  2  1  0
 21 13  1  0
 20 16  1  0
  1 23  1  0
  1 24  1  0
  1 25  1  0
  3 26  1  0
  4 27  1  0
  8 28  1  0
  9 29  1  0
  9 30  1  0
 12 31  1  0
 14 32  1  0
 15 33  1  0
 17 34  1  0
 18 35  1  0
 19 36  1  0
 21 37  1  0
M  END
>  <Energy>  (770) 
1692.2767366555061

>  <compound_id>  (770) 
25811

>  <target_id>  (770) 
1

>  <reference_id>  (770) 
66

>  <inspiration_ids>  (770) 
[66, 39]

>  <energy_score>  (770) 
1624.7403062556505

>  <distance_score>  (770) 
14.885861343962567

>  <path>  (770) 
/opt/xchem-fragalysis-2/maxwin/BulkDock/SCRATCH/511016/C25811-P66/C25811-P66.minimised.mol

>  <scratch_subdir>  (770) 
/opt/xchem-fragalysis-2/maxwin/BulkDock/SCRATCH/511016/C25811-P66

>  <fragmenstein_runtime>  (770) 
29.037644624710083

>  <fragmenstein_outcome>  (770) 
too moved

>  <fragmenstein_mode>  (770) 
expansion

>  <fragmenstein_error>  (770) 


$$$$
C25811-P39
     RDKit          3D

 37 39  0  0  0  0  0  0  0  0999 V2000
    4.4087  -14.5925   25.3292 C   0  0  0  0  0  0  0  0  0  0  0  0
    3.3093  -13.7551   24.8967 C   0  0  0  0  0  0  0  0  0  0  0  0
    2.8249  -12.9939   23.9173 C   0  0  0  0  0  0  0  0  0  0  0  0
    1.8832  -12.0911   24.5759 C   0  0  0  0  0  0  0  0  0  0  0  0
    1.3053  -11.9681   26.2187 C   0  0  0  0  0  0  0  0  0  0  0  0
    0.9605  -10.8504   27.6823 C   0  0  0  0  0  0  0  0  0  0  0  0
    0.0753  -10.1067   27.4209 O   0  0  0  0  0  0  0  0  0  0  0  0
    1.6702  -11.0232   29.0018 N   0  0  0  0  0  0  0  0  0  0  0  0
    1.4018  -10.3927   30.3911 C   0  0  0  0  0  0  0  0  0  0  0  0
   -0.2184  -10.6327   30.8811 C   0  0  0  0  0  0  0  0  0  0  0  0
   -1.0255   -9.8571   30.4285 O   0  0  0  0  0  0  0  0  0  0  0  0
   -0.4090  -11.8502   31.7285 N   0  0  0  0  0  0  0  0  0  0  0  0
   -1.6279  -12.5250   32.1767 C   0  0  0  0  0  0  0  0  0  0  0  0
   -1.4770  -13.6850   32.9612 C   0  0  0  0  0  0  0  0  0  0  0  0
   -2.4373  -14.7361   33.0151 C   0  0  0  0  0  0  0  0  0  0  0  0
   -3.5713  -14.6470   32.2008 C   0  0  0  0  0  0  0  0  0  0  0  0
   -4.5854  -15.5553   31.9527 N   0  0  0  0  0  0  0  0  0  0  0  0
   -5.4562  -15.0462   31.0249 C   0  0  0  0  0  0  0  0  0  0  0  0
   -5.0162  -13.7795   30.7004 C   0  0  0  0  0  0  0  0  0  0  0  0
   -3.8158  -13.5061   31.4374 C   0  0  0  0  0  0  0  0  0  0  0  0
   -2.8640  -12.4176   31.4811 C   0  0  0  0  0  0  0  0  0  0  0  0
    1.6020  -13.6112   26.2974 S   0  0  0  0  0  0  0  0  0  0  0  0
    4.1663  -15.1044   26.2512 H   0  0  0  0  0  0  0  0  0  0  0  0
    5.1996  -13.8980   25.5971 H   0  0  0  0  0  0  0  0  0  0  0  0
    4.7079  -15.2752   24.5368 H   0  0  0  0  0  0  0  0  0  0  0  0
    3.2265  -12.8121   22.9447 H   0  0  0  0  0  0  0  0  0  0  0  0
    1.4230  -11.6195   23.7422 H   0  0  0  0  0  0  0  0  0  0  0  0
    2.4278  -11.6686   28.8802 H   0  0  0  0  0  0  0  0  0  0  0  0
    2.0831  -10.8426   31.1153 H   0  0  0  0  0  0  0  0  0  0  0  0
    1.5650   -9.3154   30.3056 H   0  0  0  0  0  0  0  0  0  0  0  0
    0.4905  -12.2128   31.9932 H   0  0  0  0  0  0  0  0  0  0  0  0
   -0.5424  -13.8424   33.4968 H   0  0  0  0  0  0  0  0  0  0  0  0
   -2.2410  -15.6231   33.6097 H   0  0  0  0  0  0  0  0  0  0  0  0
   -4.6530  -16.4741   32.3704 H   0  0  0  0  0  0  0  0  0  0  0  0
   -6.3052  -15.6235   30.6846 H   0  0  0  0  0  0  0  0  0  0  0  0
   -5.4854  -13.1137   29.9881 H   0  0  0  0  0  0  0  0  0  0  0  0
   -3.0231  -11.5801   30.8041 H   0  0  0  0  0  0  0  0  0  0  0  0
  1  2  1  0
  2  3  2  0
  3  4  1  0
  4  5  2  0
  5  6  1  0
  6  7  2  0
  6  8  1  0
  8  9  1  0
  9 10  1  0
 10 11  2  0
 10 12  1  0
 12 13  1  0
 13 14  2  0
 14 15  1  0
 15 16  2  0
 16 17  1  0
 17 18  1  0
 18 19  2  0
 19 20  1  0
 20 21  2  0
  5 22  1  0
 22  2  1  0
 21 13  1  0
 20 16  1  0
  1 23  1  0
  1 24  1  0
  1 25  1  0
  3 26  1  0
  4 27  1  0
  8 28  1  0
  9 29  1  0
  9 30  1  0
 12 31  1  0
 14 32  1  0
 15 33  1  0
 17 34  1  0
 18 35  1  0
 19 36  1  0
 21 37  1  0
M  END
>  <Energy>  (771) 
278.03997781999766

>  <compound_id>  (771) 
25811

>  <target_id>  (771) 
1

>  <reference_id>  (771) 
39

>  <inspiration_ids>  (771) 
[66, 39]

>  <energy_score>  (771) 
210.50354742011086

>  <distance_score>  (771) 
16.473658979539024

>  <path>  (771) 
/opt/xchem-fragalysis-2/maxwin/BulkDock/SCRATCH/511016/C25811-P39/C25811-P39.minimised.mol

>  <scratch_subdir>  (771) 
/opt/xchem-fragalysis-2/maxwin/BulkDock/SCRATCH/511016/C25811-P39

>  <fragmenstein_runtime>  (771) 
24.431294918060303

>  <fragmenstein_outcome>  (771) 
too moved

>  <fragmenstein_mode>  (771) 
expansion

>  <fragmenstein_error>  (771) 


$$$$
C25813-P66
     RDKit          3D

 37 39  0  0  0  0  0  0  0  0999 V2000
    3.2947  -14.5435   20.7718 C   0  0  0  0  0  0  0  0  0  0  0  0
    3.3124  -13.2041   21.6756 C   0  0  0  0  0  0  0  0  0  0  0  0
    4.9292  -12.6378   20.9006 S   0  0  0  0  0  0  0  0  0  0  0  0
    4.2464  -11.2624   22.4413 C   0  0  0  0  0  0  0  0  0  0  0  0
    3.2746  -12.2583   23.3076 C   0  0  0  0  0  0  0  0  0  0  0  0
    2.1398  -12.0785   22.7034 C   0  0  0  0  0  0  0  0  0  0  0  0
   -0.1531  -12.8751   22.7524 S   0  0  0  0  0  0  0  0  0  0  0  0
   -0.5105  -13.9541   23.8472 O   0  0  0  0  0  0  0  0  0  0  0  0
   -0.0759  -14.2329   22.2046 O   0  0  0  0  0  0  0  0  0  0  0  0
   -1.5906  -11.5393   21.5108 N   0  0  0  0  0  0  0  0  0  0  0  0
   -3.2780  -10.6240   22.0352 C   0  0  0  0  0  0  0  0  0  0  0  0
   -4.1421  -11.1934   23.8571 C   0  0  0  0  0  0  0  0  0  0  0  0
   -5.9214  -12.1136   24.0673 C   0  0  0  0  0  0  0  0  0  0  0  0
   -6.9888  -11.7581   25.0473 C   0  0  0  0  0  0  0  0  0  0  0  0
   -8.1944  -12.4738   25.3962 C   0  0  0  0  0  0  0  0  0  0  0  0
   -8.4322  -13.6962   24.7887 C   0  0  0  0  0  0  0  0  0  0  0  0
   -9.4011  -14.6545   24.9854 N   0  0  0  0  0  0  0  0  0  0  0  0
   -9.1081  -15.7740   24.2484 C   0  0  0  0  0  0  0  0  0  0  0  0
   -7.9536  -15.5146   23.5428 C   0  0  0  0  0  0  0  0  0  0  0  0
   -7.5404  -14.1751   23.8490 C   0  0  0  0  0  0  0  0  0  0  0  0
   -6.3413  -13.3696   23.5733 C   0  0  0  0  0  0  0  0  0  0  0  0
    2.3363  -15.0096   20.6180 H   0  0  0  0  0  0  0  0  0  0  0  0
    4.0060  -15.2642   21.1956 H   0  0  0  0  0  0  0  0  0  0  0  0
    3.6492  -14.3944   19.7407 H   0  0  0  0  0  0  0  0  0  0  0  0
    5.1837  -10.7078   22.6404 H   0  0  0  0  0  0  0  0  0  0  0  0
    3.4598  -12.9212   24.1356 H   0  0  0  0  0  0  0  0  0  0  0  0
   -1.8640  -12.1599   20.7370 H   0  0  0  0  0  0  0  0  0  0  0  0
   -3.9255  -10.6437   21.1363 H   0  0  0  0  0  0  0  0  0  0  0  0
   -2.9120   -9.5846   22.1652 H   0  0  0  0  0  0  0  0  0  0  0  0
   -3.5493  -11.8963   24.4676 H   0  0  0  0  0  0  0  0  0  0  0  0
   -3.8098  -10.1486   23.9161 H   0  0  0  0  0  0  0  0  0  0  0  0
   -6.9311  -10.8629   25.6597 H   0  0  0  0  0  0  0  0  0  0  0  0
   -8.8537  -12.0765   26.1624 H   0  0  0  0  0  0  0  0  0  0  0  0
  -10.1681  -14.5597   25.6364 H   0  0  0  0  0  0  0  0  0  0  0  0
   -9.7238  -16.6556   24.3041 H   0  0  0  0  0  0  0  0  0  0  0  0
   -7.4368  -16.2090   22.8936 H   0  0  0  0  0  0  0  0  0  0  0  0
   -5.5458  -14.0307   23.2883 H   0  0  0  0  0  0  0  0  0  0  0  0
  1  2  1  0
  2  3  1  0
  3  4  1  0
  4  5  2  0
  5  6  1  0
  6  7  1  0
  7  8  2  0
  7  9  2  0
  7 10  1  0
 10 11  1  0
 11 12  1  0
 12 13  1  0
 13 14  2  0
 14 15  1  0
 15 16  2  0
 16 17  1  0
 17 18  1  0
 18 19  2  0
 19 20  1  0
 20 21  2  0
  6  2  2  0
 21 13  1  0
 20 16  1  0
  1 22  1  0
  1 23  1  0
  1 24  1  0
  4 25  1  0
  5 26  1  0
 10 27  1  0
 11 28  1  0
 11 29  1  0
 12 30  1  0
 12 31  1  0
 14 32  1  0
 15 33  1  0
 17 34  1  0
 18 35  1  0
 19 36  1  0
 21 37  1  0
M  END
>  <Energy>  (772) 
891.19246325968572

>  <compound_id>  (772) 
25813

>  <target_id>  (772) 
1

>  <reference_id>  (772) 
66

>  <inspiration_ids>  (772) 
[66, 39]

>  <energy_score>  (772) 
871.7963243755125

>  <distance_score>  (772) 
15.395937480901324

>  <path>  (772) 
/opt/xchem-fragalysis-2/maxwin/BulkDock/SCRATCH/511016/C25813-P66/C25813-P66.minimised.mol

>  <scratch_subdir>  (772) 
/opt/xchem-fragalysis-2/maxwin/BulkDock/SCRATCH/511016/C25813-P66

>  <fragmenstein_runtime>  (772) 
18.71276092529297

>  <fragmenstein_outcome>  (772) 
too moved

>  <fragmenstein_mode>  (772) 
expansion

>  <fragmenstein_error>  (772) 


$$$$
C25813-P39
     RDKit          3D

 37 39  0  0  0  0  0  0  0  0999 V2000
    8.2798  -14.7546   24.2775 C   0  0  0  0  0  0  0  0  0  0  0  0
    7.5427  -14.0680   25.3861 C   0  0  0  0  0  0  0  0  0  0  0  0
    7.9941  -12.4154   25.6493 S   0  0  0  0  0  0  0  0  0  0  0  0
    6.9557  -12.2926   26.9869 C   0  0  0  0  0  0  0  0  0  0  0  0
    6.2523  -13.4594   27.2197 C   0  0  0  0  0  0  0  0  0  0  0  0
    6.5332  -14.4948   26.2727 C   0  0  0  0  0  0  0  0  0  0  0  0
    5.7541  -16.1291   26.3445 S   0  0  0  0  0  0  0  0  0  0  0  0
    6.8044  -16.9366   26.9318 O   0  0  0  0  0  0  0  0  0  0  0  0
    5.2923  -16.3628   24.9969 O   0  0  0  0  0  0  0  0  0  0  0  0
    4.3207  -16.3713   27.5114 N   0  0  0  0  0  0  0  0  0  0  0  0
    3.4419  -17.8031   27.4036 C   0  0  0  0  0  0  0  0  0  0  0  0
    2.0810  -17.8815   28.3028 C   0  0  0  0  0  0  0  0  0  0  0  0
    0.8923  -18.8526   27.9800 C   0  0  0  0  0  0  0  0  0  0  0  0
    1.0582  -20.0363   27.2549 C   0  0  0  0  0  0  0  0  0  0  0  0
   -0.0194  -20.8982   26.9321 C   0  0  0  0  0  0  0  0  0  0  0  0
   -1.3087  -20.5577   27.3518 C   0  0  0  0  0  0  0  0  0  0  0  0
   -2.5163  -21.1886   27.1429 N   0  0  0  0  0  0  0  0  0  0  0  0
   -3.5247  -20.4617   27.7106 C   0  0  0  0  0  0  0  0  0  0  0  0
   -2.9550  -19.3857   28.3570 C   0  0  0  0  0  0  0  0  0  0  0  0
   -1.5465  -19.4167   28.1136 C   0  0  0  0  0  0  0  0  0  0  0  0
   -0.4319  -18.5803   28.4439 C   0  0  0  0  0  0  0  0  0  0  0  0
    9.2218  -15.1640   24.6579 H   0  0  0  0  0  0  0  0  0  0  0  0
    8.5104  -14.0801   23.4467 H   0  0  0  0  0  0  0  0  0  0  0  0
    7.6929  -15.5872   23.8787 H   0  0  0  0  0  0  0  0  0  0  0  0
    6.9088  -11.3729   27.5534 H   0  0  0  0  0  0  0  0  0  0  0  0
    5.5478  -13.5655   28.0358 H   0  0  0  0  0  0  0  0  0  0  0  0
    4.7550  -16.3687   28.4390 H   0  0  0  0  0  0  0  0  0  0  0  0
    4.1292  -18.5917   27.7295 H   0  0  0  0  0  0  0  0  0  0  0  0
    3.2106  -17.9457   26.3469 H   0  0  0  0  0  0  0  0  0  0  0  0
    1.6796  -16.8649   28.3405 H   0  0  0  0  0  0  0  0  0  0  0  0
    2.4004  -18.1134   29.3273 H   0  0  0  0  0  0  0  0  0  0  0  0
    2.0499  -20.3199   26.9046 H   0  0  0  0  0  0  0  0  0  0  0  0
    0.1639  -21.8003   26.3549 H   0  0  0  0  0  0  0  0  0  0  0  0
   -2.6336  -22.0463   26.6212 H   0  0  0  0  0  0  0  0  0  0  0  0
   -4.5489  -20.7792   27.6148 H   0  0  0  0  0  0  0  0  0  0  0  0
   -3.4938  -18.6343   28.9211 H   0  0  0  0  0  0  0  0  0  0  0  0
   -0.6191  -17.6857   29.0352 H   0  0  0  0  0  0  0  0  0  0  0  0
  1  2  1  0
  2  3  1  0
  3  4  1  0
  4  5  2  0
  5  6  1  0
  6  7  1  0
  7  8  2  0
  7  9  2  0
  7 10  1  0
 10 11  1  0
 11 12  1  0
 12 13  1  0
 13 14  2  0
 14 15  1  0
 15 16  2  0
 16 17  1  0
 17 18  1  0
 18 19  2  0
 19 20  1  0
 20 21  2  0
  6  2  2  0
 21 13  1  0
 20 16  1  0
  1 22  1  0
  1 23  1  0
  1 24  1  0
  4 25  1  0
  5 26  1  0
 10 27  1  0
 11 28  1  0
 11 29  1  0
 12 30  1  0
 12 31  1  0
 14 32  1  0
 15 33  1  0
 17 34  1  0
 18 35  1  0
 19 36  1  0
 21 37  1  0
M  END
>  <Energy>  (773) 
16.246396983423146

>  <compound_id>  (773) 
25813

>  <target_id>  (773) 
1

>  <reference_id>  (773) 
39

>  <inspiration_ids>  (773) 
[66, 39]

>  <energy_score>  (773) 
-3.1497419007323515

>  <distance_score>  (773) 
14.95125819570074

>  <path>  (773) 
/opt/xchem-fragalysis-2/maxwin/BulkDock/SCRATCH/511016/C25813-P39/C25813-P39.minimised.mol

>  <scratch_subdir>  (773) 
/opt/xchem-fragalysis-2/maxwin/BulkDock/SCRATCH/511016/C25813-P39

>  <fragmenstein_runtime>  (773) 
19.511357069015503

>  <fragmenstein_outcome>  (773) 
too moved

>  <fragmenstein_mode>  (773) 
expansion

>  <fragmenstein_error>  (773) 


$$$$
C25814-P66
     RDKit          3D

 39 41  0  0  0  0  0  0  0  0999 V2000
    4.7584  -10.9267   22.5150 C   0  0  0  0  0  0  0  0  0  0  0  0
    3.5181  -12.1431   22.6421 C   0  0  0  0  0  0  0  0  0  0  0  0
    3.4566  -13.1704   21.7321 C   0  0  0  0  0  0  0  0  0  0  0  0
    3.0076  -14.4490   22.9210 C   0  0  0  0  0  0  0  0  0  0  0  0
    1.6517  -14.5413   23.3717 C   0  0  0  0  0  0  0  0  0  0  0  0
   -0.1669  -14.3135   22.7411 C   0  0  0  0  0  0  0  0  0  0  0  0
   -1.4885  -15.6355   22.2671 C   0  0  0  0  0  0  0  0  0  0  0  0
   -2.3325  -15.4456   20.9527 C   0  0  0  0  0  0  0  0  0  0  0  0
   -2.3880  -16.1969   23.3084 N   0  0  0  0  0  0  0  0  0  0  0  0
   -3.3904  -17.2341   23.2326 C   0  0  0  0  0  0  0  0  0  0  0  0
   -3.8089  -17.8492   22.2945 O   0  0  0  0  0  0  0  0  0  0  0  0
   -3.9309  -17.6973   24.5452 C   0  0  0  0  0  0  0  0  0  0  0  0
   -4.6435  -16.9035   25.4445 C   0  0  0  0  0  0  0  0  0  0  0  0
   -5.0204  -17.4092   26.7034 C   0  0  0  0  0  0  0  0  0  0  0  0
   -4.5997  -18.7059   27.0347 C   0  0  0  0  0  0  0  0  0  0  0  0
   -4.6380  -19.3868   28.2278 N   0  0  0  0  0  0  0  0  0  0  0  0
   -3.9875  -20.5898   28.0976 C   0  0  0  0  0  0  0  0  0  0  0  0
   -3.6615  -20.7663   26.7795 C   0  0  0  0  0  0  0  0  0  0  0  0
   -3.9510  -19.5420   26.1269 C   0  0  0  0  0  0  0  0  0  0  0  0
   -3.6537  -19.0439   24.8518 C   0  0  0  0  0  0  0  0  0  0  0  0
    2.3494  -12.5563   23.8596 S   0  0  0  0  0  0  0  0  0  0  0  0
    5.2165  -11.1000   21.5354 H   0  0  0  0  0  0  0  0  0  0  0  0
    4.5676  -10.0070   23.0241 H   0  0  0  0  0  0  0  0  0  0  0  0
    5.6652  -10.9985   23.1975 H   0  0  0  0  0  0  0  0  0  0  0  0
    4.2236  -13.1922   20.9624 H   0  0  0  0  0  0  0  0  0  0  0  0
    3.6974  -15.1954   23.3043 H   0  0  0  0  0  0  0  0  0  0  0  0
    0.3668  -14.9491   22.0565 H   0  0  0  0  0  0  0  0  0  0  0  0
   -0.4845  -14.2703   23.7951 H   0  0  0  0  0  0  0  0  0  0  0  0
   -0.9070  -16.5162   21.9587 H   0  0  0  0  0  0  0  0  0  0  0  0
   -2.3778  -14.4192   20.5867 H   0  0  0  0  0  0  0  0  0  0  0  0
   -3.3651  -15.7901   21.0484 H   0  0  0  0  0  0  0  0  0  0  0  0
   -1.9016  -16.0505   20.1436 H   0  0  0  0  0  0  0  0  0  0  0  0
   -2.2293  -15.9618   24.2797 H   0  0  0  0  0  0  0  0  0  0  0  0
   -4.8960  -15.8792   25.1838 H   0  0  0  0  0  0  0  0  0  0  0  0
   -5.5343  -16.7806   27.4246 H   0  0  0  0  0  0  0  0  0  0  0  0
   -5.0243  -19.0351   29.0977 H   0  0  0  0  0  0  0  0  0  0  0  0
   -3.8050  -21.2099   28.9615 H   0  0  0  0  0  0  0  0  0  0  0  0
   -3.1468  -21.6210   26.3598 H   0  0  0  0  0  0  0  0  0  0  0  0
   -3.1257  -19.6692   24.1347 H   0  0  0  0  0  0  0  0  0  0  0  0
  1  2  1  0
  2  3  2  0
  3  4  1  0
  4  5  2  0
  5  6  1  0
  6  7  1  0
  7  8  1  0
  7  9  1  0
  9 10  1  0
 10 11  2  0
 10 12  1  0
 12 13  2  0
 13 14  1  0
 14 15  2  0
 15 16  1  0
 16 17  1  0
 17 18  2  0
 18 19  1  0
 19 20  2  0
  5 21  1  0
 21  2  1  0
 20 12  1  0
 19 15  1  0
  1 22  1  0
  1 23  1  0
  1 24  1  0
  3 25  1  0
  4 26  1  0
  6 27  1  0
  6 28  1  0
  7 29  1  0
  8 30  1  0
  8 31  1  0
  8 32  1  0
  9 33  1  0
 13 34  1  0
 14 35  1  0
 16 36  1  0
 17 37  1  0
 18 38  1  0
 20 39  1  0
M  END
>  <Energy>  (774) 
352.69624964824425

>  <compound_id>  (774) 
25814

>  <target_id>  (774) 
1

>  <reference_id>  (774) 
66

>  <inspiration_ids>  (774) 
[66, 39]

>  <energy_score>  (774) 
283.88897665166587

>  <distance_score>  (774) 
13.601394280613391

>  <path>  (774) 
/opt/xchem-fragalysis-2/maxwin/BulkDock/SCRATCH/511016/C25814-P66/C25814-P66.minimised.mol

>  <scratch_subdir>  (774) 
/opt/xchem-fragalysis-2/maxwin/BulkDock/SCRATCH/511016/C25814-P66

>  <fragmenstein_runtime>  (774) 
42.75872015953064

>  <fragmenstein_outcome>  (774) 
too moved

>  <fragmenstein_mode>  (774) 
expansion

>  <fragmenstein_error>  (774) 


$$$$
C25814-P39
     RDKit          3D

 39 41  0  0  0  0  0  0  0  0999 V2000
    3.1918  -12.4976   23.1683 C   0  0  0  0  0  0  0  0  0  0  0  0
    3.4549  -13.5991   24.1792 C   0  0  0  0  0  0  0  0  0  0  0  0
    3.6678  -14.8794   23.7604 C   0  0  0  0  0  0  0  0  0  0  0  0
    4.6252  -15.4080   24.6052 C   0  0  0  0  0  0  0  0  0  0  0  0
    4.1435  -15.2276   25.9919 C   0  0  0  0  0  0  0  0  0  0  0  0
    3.4979  -16.3827   27.3595 C   0  0  0  0  0  0  0  0  0  0  0  0
    2.4922  -17.7367   27.8295 C   0  0  0  0  0  0  0  0  0  0  0  0
    2.7588  -19.1090   27.1325 C   0  0  0  0  0  0  0  0  0  0  0  0
    1.0707  -17.7493   28.2918 N   0  0  0  0  0  0  0  0  0  0  0  0
   -0.0947  -18.4758   27.7846 C   0  0  0  0  0  0  0  0  0  0  0  0
   -0.2188  -19.1815   26.8202 O   0  0  0  0  0  0  0  0  0  0  0  0
   -1.3457  -18.4575   28.6219 C   0  0  0  0  0  0  0  0  0  0  0  0
   -2.5824  -18.1455   28.0267 C   0  0  0  0  0  0  0  0  0  0  0  0
   -3.8088  -18.3633   28.6800 C   0  0  0  0  0  0  0  0  0  0  0  0
   -3.7579  -18.9505   29.9461 C   0  0  0  0  0  0  0  0  0  0  0  0
   -4.7665  -19.2838   30.8183 N   0  0  0  0  0  0  0  0  0  0  0  0
   -4.2501  -19.8866   31.9335 C   0  0  0  0  0  0  0  0  0  0  0  0
   -2.8898  -19.9612   31.7824 C   0  0  0  0  0  0  0  0  0  0  0  0
   -2.5587  -19.3345   30.5488 C   0  0  0  0  0  0  0  0  0  0  0  0
   -1.3375  -19.0820   29.8794 C   0  0  0  0  0  0  0  0  0  0  0  0
    4.9221  -13.8126   25.6888 S   0  0  0  0  0  0  0  0  0  0  0  0
    3.8727  -11.7865   22.6938 H   0  0  0  0  0  0  0  0  0  0  0  0
    2.2712  -12.0096   23.4321 H   0  0  0  0  0  0  0  0  0  0  0  0
    3.2617  -12.9627   22.1947 H   0  0  0  0  0  0  0  0  0  0  0  0
    3.3350  -15.1098   22.7952 H   0  0  0  0  0  0  0  0  0  0  0  0
    5.3348  -16.1348   24.2801 H   0  0  0  0  0  0  0  0  0  0  0  0
    4.1974  -16.3552   28.1346 H   0  0  0  0  0  0  0  0  0  0  0  0
    3.5698  -17.0983   26.5606 H   0  0  0  0  0  0  0  0  0  0  0  0
    2.9600  -17.9506   28.8046 H   0  0  0  0  0  0  0  0  0  0  0  0
    3.7266  -19.5245   27.4249 H   0  0  0  0  0  0  0  0  0  0  0  0
    2.0550  -19.8827   27.4571 H   0  0  0  0  0  0  0  0  0  0  0  0
    2.6942  -19.0370   26.0431 H   0  0  0  0  0  0  0  0  0  0  0  0
    0.8330  -17.3198   29.1787 H   0  0  0  0  0  0  0  0  0  0  0  0
   -2.5962  -17.7601   27.0093 H   0  0  0  0  0  0  0  0  0  0  0  0
   -4.7511  -18.1066   28.2093 H   0  0  0  0  0  0  0  0  0  0  0  0
   -5.7619  -19.2202   30.6356 H   0  0  0  0  0  0  0  0  0  0  0  0
   -4.9184  -20.2216   32.7134 H   0  0  0  0  0  0  0  0  0  0  0  0
   -2.2016  -20.3966   32.4941 H   0  0  0  0  0  0  0  0  0  0  0  0
   -0.4063  -19.4336   30.3131 H   0  0  0  0  0  0  0  0  0  0  0  0
  1  2  1  0
  2  3  2  0
  3  4  1  0
  4  5  2  0
  5  6  1  0
  6  7  1  0
  7  8  1  0
  7  9  1  0
  9 10  1  0
 10 11  2  0
 10 12  1  0
 12 13  2  0
 13 14  1  0
 14 15  2  0
 15 16  1  0
 16 17  1  0
 17 18  2  0
 18 19  1  0
 19 20  2  0
  5 21  1  0
 21  2  1  0
 20 12  1  0
 19 15  1  0
  1 22  1  0
  1 23  1  0
  1 24  1  0
  3 25  1  0
  4 26  1  0
  6 27  1  0
  6 28  1  0
  7 29  1  0
  8 30  1  0
  8 31  1  0
  8 32  1  0
  9 33  1  0
 13 34  1  0
 14 35  1  0
 16 36  1  0
 17 37  1  0
 18 38  1  0
 20 39  1  0
M  END
>  <Energy>  (775) 
322.27499330295495

>  <compound_id>  (775) 
25814

>  <target_id>  (775) 
1

>  <reference_id>  (775) 
39

>  <inspiration_ids>  (775) 
[66, 39]

>  <energy_score>  (775) 
253.4677203063834

>  <distance_score>  (775) 
14.484721063398673

>  <path>  (775) 
/opt/xchem-fragalysis-2/maxwin/BulkDock/SCRATCH/511016/C25814-P39/C25814-P39.minimised.mol

>  <scratch_subdir>  (775) 
/opt/xchem-fragalysis-2/maxwin/BulkDock/SCRATCH/511016/C25814-P39

>  <fragmenstein_runtime>  (775) 
33.28925108909607

>  <fragmenstein_outcome>  (775) 
too moved

>  <fragmenstein_mode>  (775) 
expansion

>  <fragmenstein_error>  (775) 


$$$$
C25815-P66
     RDKit          3D

 36 38  0  0  0  0  0  0  0  0999 V2000
    7.5988   -7.6357   26.3687 C   0  0  0  0  0  0  0  0  0  0  0  0
    7.0415   -8.8545   27.0642 C   0  0  0  0  0  0  0  0  0  0  0  0
    7.2887  -10.1764   26.7767 C   0  0  0  0  0  0  0  0  0  0  0  0
    6.5241  -11.0783   27.6051 C   0  0  0  0  0  0  0  0  0  0  0  0
    5.7251  -10.4695   28.5684 C   0  0  0  0  0  0  0  0  0  0  0  0
    4.6917  -11.0433   29.6836 C   0  0  0  0  0  0  0  0  0  0  0  0
    4.5350  -12.6076   29.8905 C   0  0  0  0  0  0  0  0  0  0  0  0
    3.2788  -13.2739   30.6598 C   0  0  0  0  0  0  0  0  0  0  0  0
    2.6073  -12.5838   31.3840 O   0  0  0  0  0  0  0  0  0  0  0  0
    3.1033  -14.7086   30.2339 N   0  0  0  0  0  0  0  0  0  0  0  0
    2.0155  -15.6626   30.4909 C   0  0  0  0  0  0  0  0  0  0  0  0
    2.0401  -16.8408   29.7127 C   0  0  0  0  0  0  0  0  0  0  0  0
    0.9607  -17.7575   29.6014 C   0  0  0  0  0  0  0  0  0  0  0  0
   -0.2135  -17.4769   30.2975 C   0  0  0  0  0  0  0  0  0  0  0  0
   -1.4242  -18.1423   30.3225 N   0  0  0  0  0  0  0  0  0  0  0  0
   -2.2993  -17.4882   31.1449 C   0  0  0  0  0  0  0  0  0  0  0  0
   -1.6361  -16.3935   31.6634 C   0  0  0  0  0  0  0  0  0  0  0  0
   -0.3047  -16.3608   31.1310 C   0  0  0  0  0  0  0  0  0  0  0  0
    0.8339  -15.4676   31.2453 C   0  0  0  0  0  0  0  0  0  0  0  0
    5.9426   -8.7330   28.3906 S   0  0  0  0  0  0  0  0  0  0  0  0
    8.1720   -7.0251   27.0732 H   0  0  0  0  0  0  0  0  0  0  0  0
    6.7858   -7.0313   25.9541 H   0  0  0  0  0  0  0  0  0  0  0  0
    8.2614   -7.9270   25.5473 H   0  0  0  0  0  0  0  0  0  0  0  0
    7.9464  -10.5033   25.9798 H   0  0  0  0  0  0  0  0  0  0  0  0
    6.5565  -12.1432   27.4422 H   0  0  0  0  0  0  0  0  0  0  0  0
    3.7066  -10.6220   29.4472 H   0  0  0  0  0  0  0  0  0  0  0  0
    4.9960  -10.6057   30.6433 H   0  0  0  0  0  0  0  0  0  0  0  0
    4.5236  -13.0477   28.8924 H   0  0  0  0  0  0  0  0  0  0  0  0
    5.4064  -12.9301   30.4650 H   0  0  0  0  0  0  0  0  0  0  0  0
    3.8142  -14.9437   29.5493 H   0  0  0  0  0  0  0  0  0  0  0  0
    2.9200  -17.0476   29.1027 H   0  0  0  0  0  0  0  0  0  0  0  0
    1.0456  -18.6233   28.9523 H   0  0  0  0  0  0  0  0  0  0  0  0
   -1.6287  -18.9854   29.8048 H   0  0  0  0  0  0  0  0  0  0  0  0
   -3.3076  -17.8522   31.2961 H   0  0  0  0  0  0  0  0  0  0  0  0
   -2.0625  -15.6715   32.3478 H   0  0  0  0  0  0  0  0  0  0  0  0
    0.7300  -14.5753   31.8585 H   0  0  0  0  0  0  0  0  0  0  0  0
  1  2  1  0
  2  3  2  0
  3  4  1  0
  4  5  2  0
  5  6  1  0
  6  7  1  0
  7  8  1  0
  8  9  2  0
  8 10  1  0
 10 11  1  0
 11 12  2  0
 12 13  1  0
 13 14  2  0
 14 15  1  0
 15 16  1  0
 16 17  2  0
 17 18  1  0
 18 19  2  0
  5 20  1  0
 20  2  1  0
 19 11  1  0
 18 14  1  0
  1 21  1  0
  1 22  1  0
  1 23  1  0
  3 24  1  0
  4 25  1  0
  6 26  1  0
  6 27  1  0
  7 28  1  0
  7 29  1  0
 10 30  1  0
 12 31  1  0
 13 32  1  0
 15 33  1  0
 16 34  1  0
 17 35  1  0
 19 36  1  0
M  END
>  <Energy>  (776) 
35.114358845450376

>  <compound_id>  (776) 
25815

>  <target_id>  (776) 
1

>  <reference_id>  (776) 
66

>  <inspiration_ids>  (776) 
[66, 39]

>  <energy_score>  (776) 
0.7815362316778192

>  <distance_score>  (776) 
15.076092055866724

>  <path>  (776) 
/opt/xchem-fragalysis-2/maxwin/BulkDock/SCRATCH/511016/C25815-P66/C25815-P66.minimised.mol

>  <scratch_subdir>  (776) 
/opt/xchem-fragalysis-2/maxwin/BulkDock/SCRATCH/511016/C25815-P66

>  <fragmenstein_runtime>  (776) 
34.05269384384155

>  <fragmenstein_outcome>  (776) 
too moved

>  <fragmenstein_mode>  (776) 
expansion

>  <fragmenstein_error>  (776) 


$$$$
C25815-P39
     RDKit          3D

 36 38  0  0  0  0  0  0  0  0999 V2000
    2.0170   -5.1975   18.8796 C   0  0  0  0  0  0  0  0  0  0  0  0
    0.8704   -6.1718   19.0054 C   0  0  0  0  0  0  0  0  0  0  0  0
    0.3171   -6.9622   18.0208 C   0  0  0  0  0  0  0  0  0  0  0  0
   -0.7744   -7.7772   18.4986 C   0  0  0  0  0  0  0  0  0  0  0  0
   -1.0145   -7.6713   19.8583 C   0  0  0  0  0  0  0  0  0  0  0  0
   -2.0060   -8.4068   20.8337 C   0  0  0  0  0  0  0  0  0  0  0  0
   -2.9548   -9.5965   20.3754 C   0  0  0  0  0  0  0  0  0  0  0  0
   -3.8438  -10.2019   21.5829 C   0  0  0  0  0  0  0  0  0  0  0  0
   -3.7176   -9.6662   22.6556 O   0  0  0  0  0  0  0  0  0  0  0  0
   -4.6401  -11.3893   21.1851 N   0  0  0  0  0  0  0  0  0  0  0  0
   -5.4304  -12.3205   21.9832 C   0  0  0  0  0  0  0  0  0  0  0  0
   -5.7473  -12.0944   23.3309 C   0  0  0  0  0  0  0  0  0  0  0  0
   -6.4153  -13.0521   24.1465 C   0  0  0  0  0  0  0  0  0  0  0  0
   -6.7622  -14.2899   23.5878 C   0  0  0  0  0  0  0  0  0  0  0  0
   -7.3769  -15.3970   24.1410 N   0  0  0  0  0  0  0  0  0  0  0  0
   -7.4978  -16.3894   23.2034 C   0  0  0  0  0  0  0  0  0  0  0  0
   -6.9490  -15.9175   22.0296 C   0  0  0  0  0  0  0  0  0  0  0  0
   -6.4831  -14.5817   22.2540 C   0  0  0  0  0  0  0  0  0  0  0  0
   -5.8288  -13.5799   21.4552 C   0  0  0  0  0  0  0  0  0  0  0  0
    0.0399   -6.4246   20.4944 S   0  0  0  0  0  0  0  0  0  0  0  0
    1.7434   -4.4010   18.1795 H   0  0  0  0  0  0  0  0  0  0  0  0
    2.9045   -5.7028   18.4882 H   0  0  0  0  0  0  0  0  0  0  0  0
    2.2652   -4.7300   19.8363 H   0  0  0  0  0  0  0  0  0  0  0  0
    0.6651   -6.9717   16.9955 H   0  0  0  0  0  0  0  0  0  0  0  0
   -1.3244   -8.4634   17.8691 H   0  0  0  0  0  0  0  0  0  0  0  0
   -2.6494   -7.6265   21.2631 H   0  0  0  0  0  0  0  0  0  0  0  0
   -1.3911   -8.7895   21.6605 H   0  0  0  0  0  0  0  0  0  0  0  0
   -3.6405   -9.2407   19.5995 H   0  0  0  0  0  0  0  0  0  0  0  0
   -2.3487  -10.4113   19.9668 H   0  0  0  0  0  0  0  0  0  0  0  0
   -4.4458  -11.6099   20.2148 H   0  0  0  0  0  0  0  0  0  0  0  0
   -5.4609  -11.1512   23.7945 H   0  0  0  0  0  0  0  0  0  0  0  0
   -6.6255  -12.8223   25.1869 H   0  0  0  0  0  0  0  0  0  0  0  0
   -7.6762  -15.4585   25.1042 H   0  0  0  0  0  0  0  0  0  0  0  0
   -7.9523  -17.3399   23.4435 H   0  0  0  0  0  0  0  0  0  0  0  0
   -6.8821  -16.4685   21.1001 H   0  0  0  0  0  0  0  0  0  0  0  0
   -5.5919  -13.8298   20.4242 H   0  0  0  0  0  0  0  0  0  0  0  0
  1  2  1  0
  2  3  2  0
  3  4  1  0
  4  5  2  0
  5  6  1  0
  6  7  1  0
  7  8  1  0
  8  9  2  0
  8 10  1  0
 10 11  1  0
 11 12  2  0
 12 13  1  0
 13 14  2  0
 14 15  1  0
 15 16  1  0
 16 17  2  0
 17 18  1  0
 18 19  2  0
  5 20  1  0
 20  2  1  0
 19 11  1  0
 18 14  1  0
  1 21  1  0
  1 22  1  0
  1 23  1  0
  3 24  1  0
  4 25  1  0
  6 26  1  0
  6 27  1  0
  7 28  1  0
  7 29  1  0
 10 30  1  0
 12 31  1  0
 13 32  1  0
 15 33  1  0
 16 34  1  0
 17 35  1  0
 19 36  1  0
M  END
>  <Energy>  (777) 
23.624768762965292

>  <compound_id>  (777) 
25815

>  <target_id>  (777) 
1

>  <reference_id>  (777) 
39

>  <inspiration_ids>  (777) 
[66, 39]

>  <energy_score>  (777) 
-10.708053850808142

>  <distance_score>  (777) 
14.551832804121545

>  <path>  (777) 
/opt/xchem-fragalysis-2/maxwin/BulkDock/SCRATCH/511016/C25815-P39/C25815-P39.minimised.mol

>  <scratch_subdir>  (777) 
/opt/xchem-fragalysis-2/maxwin/BulkDock/SCRATCH/511016/C25815-P39

>  <fragmenstein_runtime>  (777) 
27.038064002990723

>  <fragmenstein_outcome>  (777) 
too moved

>  <fragmenstein_mode>  (777) 
expansion

>  <fragmenstein_error>  (777) 


$$$$
C25816-P66
     RDKit          3D

 41 43  0  0  0  0  0  0  0  0999 V2000
    4.7754  -12.6310   20.5314 C   0  0  0  0  0  0  0  0  0  0  0  0
    3.5235  -12.9909   21.6795 C   0  0  0  0  0  0  0  0  0  0  0  0
    3.6278  -12.1558   22.8414 C   0  0  0  0  0  0  0  0  0  0  0  0
    3.2136  -13.2543   23.9845 C   0  0  0  0  0  0  0  0  0  0  0  0
    1.8744  -13.0383   24.3712 C   0  0  0  0  0  0  0  0  0  0  0  0
    0.5318  -14.1990   24.0803 C   0  0  0  0  0  0  0  0  0  0  0  0
    1.3013  -14.6982   23.2446 O   0  0  0  0  0  0  0  0  0  0  0  0
   -1.3485  -14.9698   24.4337 C   0  0  0  0  0  0  0  0  0  0  0  0
   -2.8016  -16.2332   25.1936 C   0  0  0  0  0  0  0  0  0  0  0  0
   -3.2973  -18.1038   24.8565 C   0  0  0  0  0  0  0  0  0  0  0  0
   -3.5214  -18.2544   23.6742 O   0  0  0  0  0  0  0  0  0  0  0  0
   -3.2827  -19.4858   25.9680 N   0  0  0  0  0  0  0  0  0  0  0  0
   -3.4023  -20.9609   25.7081 C   0  0  0  0  0  0  0  0  0  0  0  0
   -4.8133  -20.0622   26.8643 C   0  0  0  0  0  0  0  0  0  0  0  0
   -5.7186  -19.1089   27.2270 C   0  0  0  0  0  0  0  0  0  0  0  0
   -7.0330  -19.5699   27.6564 C   0  0  0  0  0  0  0  0  0  0  0  0
   -7.9129  -21.1034   27.5647 C   0  0  0  0  0  0  0  0  0  0  0  0
   -9.6591  -21.4821   28.0456 N   0  0  0  0  0  0  0  0  0  0  0  0
   -9.8175  -22.8150   28.1398 C   0  0  0  0  0  0  0  0  0  0  0  0
   -8.4669  -23.1449   28.1155 C   0  0  0  0  0  0  0  0  0  0  0  0
   -7.1236  -22.2327   27.6345 C   0  0  0  0  0  0  0  0  0  0  0  0
   -5.4330  -21.6966   27.3258 C   0  0  0  0  0  0  0  0  0  0  0  0
    2.2897  -11.9209   23.1262 S   0  0  0  0  0  0  0  0  0  0  0  0
    4.4032  -12.8382   19.5164 H   0  0  0  0  0  0  0  0  0  0  0  0
    5.6530  -13.2345   20.6687 H   0  0  0  0  0  0  0  0  0  0  0  0
    5.1412  -11.5951   20.6191 H   0  0  0  0  0  0  0  0  0  0  0  0
    4.3662  -11.3027   22.6240 H   0  0  0  0  0  0  0  0  0  0  0  0
    3.4994  -14.3092   23.9094 H   0  0  0  0  0  0  0  0  0  0  0  0
   -1.6857  -14.1716   25.1217 H   0  0  0  0  0  0  0  0  0  0  0  0
   -1.6746  -15.1432   23.3985 H   0  0  0  0  0  0  0  0  0  0  0  0
   -2.9094  -16.0675   26.2792 H   0  0  0  0  0  0  0  0  0  0  0  0
   -3.6816  -15.7312   24.7577 H   0  0  0  0  0  0  0  0  0  0  0  0
   -3.0710  -21.5708   26.5569 H   0  0  0  0  0  0  0  0  0  0  0  0
   -2.5724  -21.1174   24.9994 H   0  0  0  0  0  0  0  0  0  0  0  0
   -4.2413  -21.2723   25.0733 H   0  0  0  0  0  0  0  0  0  0  0  0
   -5.4858  -18.0518   27.2126 H   0  0  0  0  0  0  0  0  0  0  0  0
   -7.6543  -18.7627   28.0901 H   0  0  0  0  0  0  0  0  0  0  0  0
  -10.3040  -20.7303   28.1912 H   0  0  0  0  0  0  0  0  0  0  0  0
  -10.7382  -23.3140   28.4186 H   0  0  0  0  0  0  0  0  0  0  0  0
   -8.5402  -24.0844   28.6952 H   0  0  0  0  0  0  0  0  0  0  0  0
   -4.7614  -22.5553   27.2865 H   0  0  0  0  0  0  0  0  0  0  0  0
  1  2  1  0
  2  3  2  0
  3  4  1  0
  4  5  2  0
  5  6  1  0
  6  7  2  0
  6  8  1  0
  8  9  1  0
  9 10  1  0
 10 11  2  0
 10 12  1  0
 12 13  1  0
 12 14  1  0
 14 15  2  0
 15 16  1  0
 16 17  2  0
 17 18  1  0
 18 19  1  0
 19 20  2  0
 20 21  1  0
 21 22  2  0
  5 23  1  0
 23  2  1  0
 22 14  1  0
 21 17  1  0
  1 24  1  0
  1 25  1  0
  1 26  1  0
  3 27  1  0
  4 28  1  0
  8 29  1  0
  8 30  1  0
  9 31  1  0
  9 32  1  0
 13 33  1  0
 13 34  1  0
 13 35  1  0
 15 36  1  0
 16 37  1  0
 18 38  1  0
 19 39  1  0
 20 40  1  0
 22 41  1  0
M  END
>  <Energy>  (778) 
1155.2260316894146

>  <compound_id>  (778) 
25816

>  <target_id>  (778) 
1

>  <reference_id>  (778) 
66

>  <inspiration_ids>  (778) 
[66, 39]

>  <energy_score>  (778) 
1094.636629054869

>  <distance_score>  (778) 
13.510096590430411

>  <path>  (778) 
/opt/xchem-fragalysis-2/maxwin/BulkDock/SCRATCH/511016/C25816-P66/C25816-P66.minimised.mol

>  <scratch_subdir>  (778) 
/opt/xchem-fragalysis-2/maxwin/BulkDock/SCRATCH/511016/C25816-P66

>  <fragmenstein_runtime>  (778) 
26.50611925125122

>  <fragmenstein_outcome>  (778) 
too moved

>  <fragmenstein_mode>  (778) 
expansion

>  <fragmenstein_error>  (778) 


$$$$
C25816-P39
     RDKit          3D

 41 43  0  0  0  0  0  0  0  0999 V2000
    4.8115   -5.2608   20.2204 C   0  0  0  0  0  0  0  0  0  0  0  0
    4.3052   -6.2048   19.1857 C   0  0  0  0  0  0  0  0  0  0  0  0
    3.7341   -5.9379   17.9582 C   0  0  0  0  0  0  0  0  0  0  0  0
    3.2617   -7.1223   17.3116 C   0  0  0  0  0  0  0  0  0  0  0  0
    3.4994   -8.2575   18.0610 C   0  0  0  0  0  0  0  0  0  0  0  0
    3.1813   -9.6625   17.7940 C   0  0  0  0  0  0  0  0  0  0  0  0
    4.0664  -10.5152   17.8654 O   0  0  0  0  0  0  0  0  0  0  0  0
    1.6988  -10.0303   17.3770 C   0  0  0  0  0  0  0  0  0  0  0  0
    0.8927  -11.2491   18.0869 C   0  0  0  0  0  0  0  0  0  0  0  0
   -0.3993  -11.7972   17.3322 C   0  0  0  0  0  0  0  0  0  0  0  0
   -1.0236  -10.9528   16.7254 O   0  0  0  0  0  0  0  0  0  0  0  0
   -0.5855  -13.2602   17.3979 N   0  0  0  0  0  0  0  0  0  0  0  0
   -1.5499  -14.1805   16.6364 C   0  0  0  0  0  0  0  0  0  0  0  0
   -1.6075  -13.6842   18.6609 C   0  0  0  0  0  0  0  0  0  0  0  0
   -2.7163  -12.9187   19.0601 C   0  0  0  0  0  0  0  0  0  0  0  0
   -3.7655  -13.4585   19.8719 C   0  0  0  0  0  0  0  0  0  0  0  0
   -3.6816  -14.7829   20.3475 C   0  0  0  0  0  0  0  0  0  0  0  0
   -4.5549  -15.5410   21.1084 N   0  0  0  0  0  0  0  0  0  0  0  0
   -4.0230  -16.7828   21.3450 C   0  0  0  0  0  0  0  0  0  0  0  0
   -2.7958  -16.8338   20.7169 C   0  0  0  0  0  0  0  0  0  0  0  0
   -2.5686  -15.5739   20.0724 C   0  0  0  0  0  0  0  0  0  0  0  0
   -1.5379  -15.0155   19.2400 C   0  0  0  0  0  0  0  0  0  0  0  0
    4.3783   -7.8832   19.4875 S   0  0  0  0  0  0  0  0  0  0  0  0
    4.5295   -5.5840   21.2284 H   0  0  0  0  0  0  0  0  0  0  0  0
    4.3938   -4.2595   20.0752 H   0  0  0  0  0  0  0  0  0  0  0  0
    5.9015   -5.1943   20.1746 H   0  0  0  0  0  0  0  0  0  0  0  0
    3.6084   -4.9408   17.5550 H   0  0  0  0  0  0  0  0  0  0  0  0
    2.7627   -7.1331   16.3499 H   0  0  0  0  0  0  0  0  0  0  0  0
    1.0766   -9.1343   17.4937 H   0  0  0  0  0  0  0  0  0  0  0  0
    1.7354  -10.2389   16.3001 H   0  0  0  0  0  0  0  0  0  0  0  0
    1.5914  -12.0841   18.1836 H   0  0  0  0  0  0  0  0  0  0  0  0
    0.5401  -10.8877   19.0552 H   0  0  0  0  0  0  0  0  0  0  0  0
   -1.2285  -14.0445   15.5932 H   0  0  0  0  0  0  0  0  0  0  0  0
   -1.3898  -15.2484   16.8203 H   0  0  0  0  0  0  0  0  0  0  0  0
   -2.5946  -13.8408   16.6072 H   0  0  0  0  0  0  0  0  0  0  0  0
   -2.8487  -11.9158   18.6555 H   0  0  0  0  0  0  0  0  0  0  0  0
   -4.6342  -12.8430   20.0931 H   0  0  0  0  0  0  0  0  0  0  0  0
   -5.4559  -15.2205   21.4352 H   0  0  0  0  0  0  0  0  0  0  0  0
   -4.5597  -17.5213   21.9256 H   0  0  0  0  0  0  0  0  0  0  0  0
   -2.1273  -17.6865   20.7074 H   0  0  0  0  0  0  0  0  0  0  0  0
   -0.6881  -15.6489   18.9873 H   0  0  0  0  0  0  0  0  0  0  0  0
  1  2  1  0
  2  3  2  0
  3  4  1  0
  4  5  2  0
  5  6  1  0
  6  7  2  0
  6  8  1  0
  8  9  1  0
  9 10  1  0
 10 11  2  0
 10 12  1  0
 12 13  1  0
 12 14  1  0
 14 15  2  0
 15 16  1  0
 16 17  2  0
 17 18  1  0
 18 19  1  0
 19 20  2  0
 20 21  1  0
 21 22  2  0
  5 23  1  0
 23  2  1  0
 22 14  1  0
 21 17  1  0
  1 24  1  0
  1 25  1  0
  1 26  1  0
  3 27  1  0
  4 28  1  0
  8 29  1  0
  8 30  1  0
  9 31  1  0
  9 32  1  0
 13 33  1  0
 13 34  1  0
 13 35  1  0
 15 36  1  0
 16 37  1  0
 18 38  1  0
 19 39  1  0
 20 40  1  0
 22 41  1  0
M  END
>  <Energy>  (779) 
124.12379106153686

>  <compound_id>  (779) 
25816

>  <target_id>  (779) 
1

>  <reference_id>  (779) 
39

>  <inspiration_ids>  (779) 
[66, 39]

>  <energy_score>  (779) 
63.53438842699916

>  <distance_score>  (779) 
15.64418154992576

>  <path>  (779) 
/opt/xchem-fragalysis-2/maxwin/BulkDock/SCRATCH/511016/C25816-P39/C25816-P39.minimised.mol

>  <scratch_subdir>  (779) 
/opt/xchem-fragalysis-2/maxwin/BulkDock/SCRATCH/511016/C25816-P39

>  <fragmenstein_runtime>  (779) 
26.23965811729431

>  <fragmenstein_outcome>  (779) 
too moved

>  <fragmenstein_mode>  (779) 
expansion

>  <fragmenstein_error>  (779) 


$$$$
C25817-P66
     RDKit          3D

 44 46  0  0  0  0  0  0  0  0999 V2000
   11.3409  -12.6246   22.7045 C   0  0  0  0  0  0  0  0  0  0  0  0
   10.1748  -12.3688   23.5968 C   0  0  0  0  0  0  0  0  0  0  0  0
    9.3341  -11.2852   23.6164 C   0  0  0  0  0  0  0  0  0  0  0  0
    8.3294  -11.4151   24.6290 C   0  0  0  0  0  0  0  0  0  0  0  0
    8.3452  -12.6368   25.3371 C   0  0  0  0  0  0  0  0  0  0  0  0
    7.4486  -13.3239   26.7520 C   0  0  0  0  0  0  0  0  0  0  0  0
    8.4088  -12.6436   27.8746 C   0  0  0  0  0  0  0  0  0  0  0  0
    5.6289  -12.9405   27.0109 N   0  0  0  0  0  0  0  0  0  0  0  0
    6.1748  -11.7886   26.3886 C   0  0  0  0  0  0  0  0  0  0  0  0
    4.3149  -14.1240   26.4281 C   0  0  0  0  0  0  0  0  0  0  0  0
    3.8352  -14.0660   25.3434 O   0  0  0  0  0  0  0  0  0  0  0  0
    3.7893  -15.2063   27.7223 N   0  0  0  0  0  0  0  0  0  0  0  0
    2.3443  -16.3980   27.8225 C   0  0  0  0  0  0  0  0  0  0  0  0
    0.8040  -16.7841   28.9023 C   0  0  0  0  0  0  0  0  0  0  0  0
   -0.3563  -17.4238   28.2831 C   0  0  0  0  0  0  0  0  0  0  0  0
   -1.5960  -17.8569   28.8195 C   0  0  0  0  0  0  0  0  0  0  0  0
   -1.6775  -17.8269   30.1842 C   0  0  0  0  0  0  0  0  0  0  0  0
   -2.6888  -18.2666   31.0078 N   0  0  0  0  0  0  0  0  0  0  0  0
   -2.2893  -18.1455   32.3071 C   0  0  0  0  0  0  0  0  0  0  0  0
   -1.0262  -17.5854   32.3058 C   0  0  0  0  0  0  0  0  0  0  0  0
   -0.6136  -17.3580   30.9550 C   0  0  0  0  0  0  0  0  0  0  0  0
    0.6035  -16.8302   30.3173 C   0  0  0  0  0  0  0  0  0  0  0  0
    9.7722  -13.5100   24.8119 S   0  0  0  0  0  0  0  0  0  0  0  0
   12.2635  -12.7175   23.2870 H   0  0  0  0  0  0  0  0  0  0  0  0
   11.1945  -13.5456   22.1302 H   0  0  0  0  0  0  0  0  0  0  0  0
   11.4757  -11.8037   21.9921 H   0  0  0  0  0  0  0  0  0  0  0  0
    9.4346  -10.4308   22.9575 H   0  0  0  0  0  0  0  0  0  0  0  0
    7.6353  -10.6012   24.7881 H   0  0  0  0  0  0  0  0  0  0  0  0
    7.6785  -14.3842   26.6205 H   0  0  0  0  0  0  0  0  0  0  0  0
    7.8556  -12.0089   28.5761 H   0  0  0  0  0  0  0  0  0  0  0  0
    9.2153  -12.0283   27.4625 H   0  0  0  0  0  0  0  0  0  0  0  0
    8.9011  -13.4374   28.4482 H   0  0  0  0  0  0  0  0  0  0  0  0
    5.5991  -11.0255   26.9239 H   0  0  0  0  0  0  0  0  0  0  0  0
    7.0711  -11.2698   26.7464 H   0  0  0  0  0  0  0  0  0  0  0  0
    6.0376  -11.8246   25.3156 H   0  0  0  0  0  0  0  0  0  0  0  0
    4.3205  -15.0149   28.5559 H   0  0  0  0  0  0  0  0  0  0  0  0
    1.9074  -15.4644   28.0686 H   0  0  0  0  0  0  0  0  0  0  0  0
    3.0848  -16.9758   28.3174 H   0  0  0  0  0  0  0  0  0  0  0  0
   -0.2947  -17.7069   27.2320 H   0  0  0  0  0  0  0  0  0  0  0  0
   -2.3658  -18.2880   28.1904 H   0  0  0  0  0  0  0  0  0  0  0  0
   -3.5733  -18.6504   30.6982 H   0  0  0  0  0  0  0  0  0  0  0  0
   -2.9341  -18.4552   33.1190 H   0  0  0  0  0  0  0  0  0  0  0  0
   -0.4490  -17.3592   33.1925 H   0  0  0  0  0  0  0  0  0  0  0  0
    1.3892  -16.5743   31.0182 H   0  0  0  0  0  0  0  0  0  0  0  0
  1  2  1  0
  2  3  2  0
  3  4  1  0
  4  5  2  0
  5  6  1  0
  6  7  1  0
  6  8  1  0
  8  9  1  0
  8 10  1  0
 10 11  2  0
 10 12  1  0
 12 13  1  0
 13 14  1  0
 14 15  2  0
 15 16  1  0
 16 17  2  0
 17 18  1  0
 18 19  1  0
 19 20  2  0
 20 21  1  0
 21 22  2  0
  5 23  1  0
 23  2  1  0
 22 14  1  0
 21 17  1  0
  1 24  1  0
  1 25  1  0
  1 26  1  0
  3 27  1  0
  4 28  1  0
  6 29  1  0
  7 30  1  0
  7 31  1  0
  7 32  1  0
  9 33  1  0
  9 34  1  0
  9 35  1  0
 12 36  1  0
 13 37  1  0
 13 38  1  0
 15 39  1  0
 16 40  1  0
 18 41  1  0
 19 42  1  0
 20 43  1  0
 22 44  1  0
M  END
>  <Energy>  (780) 
402.48759933810322

>  <compound_id>  (780) 
25817

>  <target_id>  (780) 
1

>  <reference_id>  (780) 
66

>  <inspiration_ids>  (780) 
[66, 39]

>  <energy_score>  (780) 
421.0637039384069

>  <distance_score>  (780) 
14.657841611561564

>  <path>  (780) 
/opt/xchem-fragalysis-2/maxwin/BulkDock/SCRATCH/511016/C25817-P66/C25817-P66.minimised.mol

>  <scratch_subdir>  (780) 
/opt/xchem-fragalysis-2/maxwin/BulkDock/SCRATCH/511016/C25817-P66

>  <fragmenstein_runtime>  (780) 
25.090079307556152

>  <fragmenstein_outcome>  (780) 
too moved

>  <fragmenstein_mode>  (780) 
expansion

>  <fragmenstein_error>  (780) 


$$$$
C25817-P39
     RDKit          3D

 44 46  0  0  0  0  0  0  0  0999 V2000
    6.2507  -11.8207   18.9207 C   0  0  0  0  0  0  0  0  0  0  0  0
    5.6525  -11.5896   20.2713 C   0  0  0  0  0  0  0  0  0  0  0  0
    6.0170  -10.6605   21.1849 C   0  0  0  0  0  0  0  0  0  0  0  0
    5.3251  -10.8524   22.4379 C   0  0  0  0  0  0  0  0  0  0  0  0
    3.8319  -11.8000   22.6800 C   0  0  0  0  0  0  0  0  0  0  0  0
    2.3603  -11.4618   24.1846 C   0  0  0  0  0  0  0  0  0  0  0  0
    3.3590  -10.0083   22.9118 C   0  0  0  0  0  0  0  0  0  0  0  0
    1.7302  -11.5887   26.3293 N   0  0  0  0  0  0  0  0  0  0  0  0
    2.4855  -10.5581   26.2442 C   0  0  0  0  0  0  0  0  0  0  0  0
    0.6396  -11.6132   26.8398 C   0  0  0  0  0  0  0  0  0  0  0  0
   -0.0653  -10.7384   27.2762 O   0  0  0  0  0  0  0  0  0  0  0  0
    0.4337  -13.5086   26.8723 N   0  0  0  0  0  0  0  0  0  0  0  0
   -0.9887  -14.7434   27.8103 C   0  0  0  0  0  0  0  0  0  0  0  0
   -2.4723  -15.4759   27.2828 C   0  0  0  0  0  0  0  0  0  0  0  0
   -3.4181  -14.8578   26.4552 C   0  0  0  0  0  0  0  0  0  0  0  0
   -4.6976  -15.4121   26.2483 C   0  0  0  0  0  0  0  0  0  0  0  0
   -5.0384  -16.5878   26.9257 C   0  0  0  0  0  0  0  0  0  0  0  0
   -6.2307  -17.2712   26.9653 N   0  0  0  0  0  0  0  0  0  0  0  0
   -6.1362  -18.3162   27.8366 C   0  0  0  0  0  0  0  0  0  0  0  0
   -4.8468  -18.3613   28.3159 C   0  0  0  0  0  0  0  0  0  0  0  0
   -4.1462  -17.2490   27.7675 C   0  0  0  0  0  0  0  0  0  0  0  0
   -2.8525  -16.6918   27.9462 C   0  0  0  0  0  0  0  0  0  0  0  0
    4.3840  -12.6380   20.7597 S   0  0  0  0  0  0  0  0  0  0  0  0
    7.2091  -11.2997   18.8263 H   0  0  0  0  0  0  0  0  0  0  0  0
    5.5792  -11.4510   18.1391 H   0  0  0  0  0  0  0  0  0  0  0  0
    6.4398  -12.8850   18.7444 H   0  0  0  0  0  0  0  0  0  0  0  0
    6.8575   -9.9886   21.0559 H   0  0  0  0  0  0  0  0  0  0  0  0
    5.8006  -10.4114   23.3196 H   0  0  0  0  0  0  0  0  0  0  0  0
    2.2448  -12.5314   23.9647 H   0  0  0  0  0  0  0  0  0  0  0  0
    2.9310   -8.9010   22.8163 H   0  0  0  0  0  0  0  0  0  0  0  0
    3.2732   -9.9064   21.8330 H   0  0  0  0  0  0  0  0  0  0  0  0
    4.3293   -9.5069   23.0872 H   0  0  0  0  0  0  0  0  0  0  0  0
    2.4387  -10.7534   27.5208 H   0  0  0  0  0  0  0  0  0  0  0  0
    3.9426  -10.4056   26.7764 H   0  0  0  0  0  0  0  0  0  0  0  0
    1.9255   -9.8149   27.2912 H   0  0  0  0  0  0  0  0  0  0  0  0
    1.2349  -13.9497   26.4382 H   0  0  0  0  0  0  0  0  0  0  0  0
   -1.7368  -14.3667   28.5451 H   0  0  0  0  0  0  0  0  0  0  0  0
   -0.5250  -15.4466   28.5623 H   0  0  0  0  0  0  0  0  0  0  0  0
   -3.1939  -13.9093   25.9779 H   0  0  0  0  0  0  0  0  0  0  0  0
   -5.4153  -14.9003   25.6145 H   0  0  0  0  0  0  0  0  0  0  0  0
   -7.0701  -16.9746   26.4896 H   0  0  0  0  0  0  0  0  0  0  0  0
   -6.9997  -18.9084   28.0786 H   0  0  0  0  0  0  0  0  0  0  0  0
   -4.4710  -19.0653   29.0481 H   0  0  0  0  0  0  0  0  0  0  0  0
   -2.1674  -17.1675   28.6432 H   0  0  0  0  0  0  0  0  0  0  0  0
  1  2  1  0
  2  3  2  0
  3  4  1  0
  4  5  2  0
  5  6  1  0
  6  7  1  0
  6  8  1  0
  8  9  1  0
  8 10  1  0
 10 11  2  0
 10 12  1  0
 12 13  1  0
 13 14  1  0
 14 15  2  0
 15 16  1  0
 16 17  2  0
 17 18  1  0
 18 19  1  0
 19 20  2  0
 20 21  1  0
 21 22  2  0
  5 23  1  0
 23  2  1  0
 22 14  1  0
 21 17  1  0
  1 24  1  0
  1 25  1  0
  1 26  1  0
  3 27  1  0
  4 28  1  0
  6 29  1  0
  7 30  1  0
  7 31  1  0
  7 32  1  0
  9 33  1  0
  9 34  1  0
  9 35  1  0
 12 36  1  0
 13 37  1  0
 13 38  1  0
 15 39  1  0
 16 40  1  0
 18 41  1  0
 19 42  1  0
 20 43  1  0
 22 44  1  0
M  END
>  <Energy>  (781) 
1252.5935790671413

>  <compound_id>  (781) 
25817

>  <target_id>  (781) 
1

>  <reference_id>  (781) 
39

>  <inspiration_ids>  (781) 
[66, 39]

>  <energy_score>  (781) 
1271.169683667452

>  <distance_score>  (781) 
13.554082140897883

>  <path>  (781) 
/opt/xchem-fragalysis-2/maxwin/BulkDock/SCRATCH/511016/C25817-P39/C25817-P39.minimised.mol

>  <scratch_subdir>  (781) 
/opt/xchem-fragalysis-2/maxwin/BulkDock/SCRATCH/511016/C25817-P39

>  <fragmenstein_runtime>  (781) 
27.030692100524902

>  <fragmenstein_outcome>  (781) 
too moved

>  <fragmenstein_mode>  (781) 
expansion

>  <fragmenstein_error>  (781) 


$$$$
C25818-P66
     RDKit          3D

 44 46  0  0  0  0  0  0  0  0999 V2000
    5.4402   -4.6007   20.7404 C   0  0  0  0  0  0  0  0  0  0  0  0
    4.2301   -5.2758   21.2186 C   0  0  0  0  0  0  0  0  0  0  0  0
    4.0336   -5.8996   22.4229 C   0  0  0  0  0  0  0  0  0  0  0  0
    2.7123   -6.4152   22.5349 C   0  0  0  0  0  0  0  0  0  0  0  0
    1.9375   -6.1872   21.4160 C   0  0  0  0  0  0  0  0  0  0  0  0
    0.5334   -6.5304   21.1337 C   0  0  0  0  0  0  0  0  0  0  0  0
   -0.0889   -5.9055   20.2749 O   0  0  0  0  0  0  0  0  0  0  0  0
   -0.1523   -7.7311   21.9126 C   0  0  0  0  0  0  0  0  0  0  0  0
   -1.7105   -7.6972   22.3791 C   0  0  0  0  0  0  0  0  0  0  0  0
   -2.6408   -9.0383   22.1884 C   0  0  0  0  0  0  0  0  0  0  0  0
   -2.5242   -9.5870   21.1238 O   0  0  0  0  0  0  0  0  0  0  0  0
   -3.5141   -9.3781   23.3755 N   0  0  0  0  0  0  0  0  0  0  0  0
   -4.6235  -10.4929   23.5581 C   0  0  0  0  0  0  0  0  0  0  0  0
   -4.7094  -11.3929   24.9307 C   0  0  0  0  0  0  0  0  0  0  0  0
   -5.6233  -12.6535   25.1184 C   0  0  0  0  0  0  0  0  0  0  0  0
   -6.9713  -12.6802   24.7375 C   0  0  0  0  0  0  0  0  0  0  0  0
   -7.8410  -13.7587   25.0543 C   0  0  0  0  0  0  0  0  0  0  0  0
   -7.3391  -14.8382   25.7946 C   0  0  0  0  0  0  0  0  0  0  0  0
   -7.9580  -15.9703   26.2842 N   0  0  0  0  0  0  0  0  0  0  0  0
   -7.0658  -16.7234   27.0020 C   0  0  0  0  0  0  0  0  0  0  0  0
   -5.8414  -16.0965   26.9330 C   0  0  0  0  0  0  0  0  0  0  0  0
   -6.0056  -14.8844   26.1946 C   0  0  0  0  0  0  0  0  0  0  0  0
   -5.1563  -13.7865   25.8510 C   0  0  0  0  0  0  0  0  0  0  0  0
    2.8451   -5.3242   20.2294 S   0  0  0  0  0  0  0  0  0  0  0  0
    5.2227   -3.5490   20.5299 H   0  0  0  0  0  0  0  0  0  0  0  0
    5.7984   -5.0940   19.8311 H   0  0  0  0  0  0  0  0  0  0  0  0
    6.2420   -4.6371   21.4852 H   0  0  0  0  0  0  0  0  0  0  0  0
    4.7892   -5.9891   23.1949 H   0  0  0  0  0  0  0  0  0  0  0  0
    2.3476   -6.9340   23.4087 H   0  0  0  0  0  0  0  0  0  0  0  0
    0.4055   -7.8674   22.8400 H   0  0  0  0  0  0  0  0  0  0  0  0
    0.0064   -8.6244   21.2978 H   0  0  0  0  0  0  0  0  0  0  0  0
   -1.7446   -7.4021   23.4337 H   0  0  0  0  0  0  0  0  0  0  0  0
   -2.2189   -6.9090   21.8110 H   0  0  0  0  0  0  0  0  0  0  0  0
   -3.4218   -8.6510   24.0774 H   0  0  0  0  0  0  0  0  0  0  0  0
   -5.5713   -9.9522   23.4576 H   0  0  0  0  0  0  0  0  0  0  0  0
   -4.5410  -11.1540   22.6906 H   0  0  0  0  0  0  0  0  0  0  0  0
   -3.6892  -11.6980   25.1769 H   0  0  0  0  0  0  0  0  0  0  0  0
   -4.9933  -10.6941   25.7296 H   0  0  0  0  0  0  0  0  0  0  0  0
   -7.3920  -11.8319   24.1989 H   0  0  0  0  0  0  0  0  0  0  0  0
   -8.8823  -13.7212   24.7487 H   0  0  0  0  0  0  0  0  0  0  0  0
   -8.9390  -16.1794   26.1694 H   0  0  0  0  0  0  0  0  0  0  0  0
   -7.3710  -17.6250   27.5141 H   0  0  0  0  0  0  0  0  0  0  0  0
   -4.9310  -16.4390   27.4075 H   0  0  0  0  0  0  0  0  0  0  0  0
   -4.1258  -13.8126   26.1989 H   0  0  0  0  0  0  0  0  0  0  0  0
  1  2  1  0
  2  3  2  0
  3  4  1  0
  4  5  2  0
  5  6  1  0
  6  7  2  0
  6  8  1  0
  8  9  1  0
  9 10  1  0
 10 11  2  0
 10 12  1  0
 12 13  1  0
 13 14  1  0
 14 15  1  0
 15 16  2  0
 16 17  1  0
 17 18  2  0
 18 19  1  0
 19 20  1  0
 20 21  2  0
 21 22  1  0
 22 23  2  0
  5 24  1  0
 24  2  1  0
 23 15  1  0
 22 18  1  0
  1 25  1  0
  1 26  1  0
  1 27  1  0
  3 28  1  0
  4 29  1  0
  8 30  1  0
  8 31  1  0
  9 32  1  0
  9 33  1  0
 12 34  1  0
 13 35  1  0
 13 36  1  0
 14 37  1  0
 14 38  1  0
 16 39  1  0
 17 40  1  0
 19 41  1  0
 20 42  1  0
 21 43  1  0
 23 44  1  0
M  END
>  <Energy>  (782) 
69.405933969193072

>  <compound_id>  (782) 
25818

>  <target_id>  (782) 
1

>  <reference_id>  (782) 
66

>  <inspiration_ids>  (782) 
[66, 39]

>  <energy_score>  (782) 
18.414924732374402

>  <distance_score>  (782) 
13.57392693439188

>  <path>  (782) 
/opt/xchem-fragalysis-2/maxwin/BulkDock/SCRATCH/511016/C25818-P66/C25818-P66.minimised.mol

>  <scratch_subdir>  (782) 
/opt/xchem-fragalysis-2/maxwin/BulkDock/SCRATCH/511016/C25818-P66

>  <fragmenstein_runtime>  (782) 
36.42032480239868

>  <fragmenstein_outcome>  (782) 
too moved

>  <fragmenstein_mode>  (782) 
expansion

>  <fragmenstein_error>  (782) 


$$$$
C25818-P39
     RDKit          3D

 44 46  0  0  0  0  0  0  0  0999 V2000
   10.0627   -4.6950   27.0159 C   0  0  0  0  0  0  0  0  0  0  0  0
    8.9820   -5.7200   26.9560 C   0  0  0  0  0  0  0  0  0  0  0  0
    8.3534   -6.2431   25.8490 C   0  0  0  0  0  0  0  0  0  0  0  0
    7.3740   -7.2092   26.2241 C   0  0  0  0  0  0  0  0  0  0  0  0
    7.2640   -7.4031   27.6049 C   0  0  0  0  0  0  0  0  0  0  0  0
    6.3286   -8.3574   28.2568 C   0  0  0  0  0  0  0  0  0  0  0  0
    5.6613   -9.0675   27.5014 O   0  0  0  0  0  0  0  0  0  0  0  0
    6.0736   -8.4885   29.8527 C   0  0  0  0  0  0  0  0  0  0  0  0
    5.0319   -9.7164   30.4361 C   0  0  0  0  0  0  0  0  0  0  0  0
    3.8328   -9.6729   31.7945 C   0  0  0  0  0  0  0  0  0  0  0  0
    4.1166   -8.9463   32.7192 O   0  0  0  0  0  0  0  0  0  0  0  0
    2.6083  -10.5664   31.5739 N   0  0  0  0  0  0  0  0  0  0  0  0
    1.3061  -10.7411   32.4151 C   0  0  0  0  0  0  0  0  0  0  0  0
    0.7112  -12.2929   32.8875 C   0  0  0  0  0  0  0  0  0  0  0  0
   -0.6207  -13.0734   32.4951 C   0  0  0  0  0  0  0  0  0  0  0  0
   -1.8654  -12.4528   32.3185 C   0  0  0  0  0  0  0  0  0  0  0  0
   -3.0594  -13.1725   31.9988 C   0  0  0  0  0  0  0  0  0  0  0  0
   -3.0077  -14.5693   31.8526 C   0  0  0  0  0  0  0  0  0  0  0  0
   -3.9829  -15.4917   31.5194 N   0  0  0  0  0  0  0  0  0  0  0  0
   -3.4534  -16.7574   31.5003 C   0  0  0  0  0  0  0  0  0  0  0  0
   -2.1193  -16.6502   31.8367 C   0  0  0  0  0  0  0  0  0  0  0  0
   -1.8181  -15.2650   32.0567 C   0  0  0  0  0  0  0  0  0  0  0  0
   -0.6448  -14.5084   32.4117 C   0  0  0  0  0  0  0  0  0  0  0  0
    8.3704   -6.4000   28.4165 S   0  0  0  0  0  0  0  0  0  0  0  0
   10.9612   -5.1058   27.4878 H   0  0  0  0  0  0  0  0  0  0  0  0
   10.3365   -4.3570   26.0109 H   0  0  0  0  0  0  0  0  0  0  0  0
    9.7362   -3.8193   27.5864 H   0  0  0  0  0  0  0  0  0  0  0  0
    8.5798   -5.9585   24.8294 H   0  0  0  0  0  0  0  0  0  0  0  0
    6.7623   -7.7541   25.5104 H   0  0  0  0  0  0  0  0  0  0  0  0
    5.6988   -7.5258   30.2127 H   0  0  0  0  0  0  0  0  0  0  0  0
    7.0487   -8.6722   30.3184 H   0  0  0  0  0  0  0  0  0  0  0  0
    5.7328  -10.5000   30.7554 H   0  0  0  0  0  0  0  0  0  0  0  0
    4.4906  -10.0777   29.5555 H   0  0  0  0  0  0  0  0  0  0  0  0
    2.6564  -10.9772   30.6466 H   0  0  0  0  0  0  0  0  0  0  0  0
    1.4783  -10.1721   33.3347 H   0  0  0  0  0  0  0  0  0  0  0  0
    0.5146  -10.2548   31.8367 H   0  0  0  0  0  0  0  0  0  0  0  0
    0.5904  -12.1733   33.9751 H   0  0  0  0  0  0  0  0  0  0  0  0
    1.5574  -12.9811   32.7786 H   0  0  0  0  0  0  0  0  0  0  0  0
   -1.9339  -11.3692   32.4048 H   0  0  0  0  0  0  0  0  0  0  0  0
   -3.9877  -12.6292   31.8494 H   0  0  0  0  0  0  0  0  0  0  0  0
   -4.9475  -15.2610   31.3278 H   0  0  0  0  0  0  0  0  0  0  0  0
   -4.0711  -17.6156   31.2671 H   0  0  0  0  0  0  0  0  0  0  0  0
   -1.4244  -17.4748   31.9174 H   0  0  0  0  0  0  0  0  0  0  0  0
    0.2738  -15.0607   32.5941 H   0  0  0  0  0  0  0  0  0  0  0  0
  1  2  1  0
  2  3  2  0
  3  4  1  0
  4  5  2  0
  5  6  1  0
  6  7  2  0
  6  8  1  0
  8  9  1  0
  9 10  1  0
 10 11  2  0
 10 12  1  0
 12 13  1  0
 13 14  1  0
 14 15  1  0
 15 16  2  0
 16 17  1  0
 17 18  2  0
 18 19  1  0
 19 20  1  0
 20 21  2  0
 21 22  1  0
 22 23  2  0
  5 24  1  0
 24  2  1  0
 23 15  1  0
 22 18  1  0
  1 25  1  0
  1 26  1  0
  1 27  1  0
  3 28  1  0
  4 29  1  0
  8 30  1  0
  8 31  1  0
  9 32  1  0
  9 33  1  0
 12 34  1  0
 13 35  1  0
 13 36  1  0
 14 37  1  0
 14 38  1  0
 16 39  1  0
 17 40  1  0
 19 41  1  0
 20 42  1  0
 21 43  1  0
 23 44  1  0
M  END
>  <Energy>  (783) 
106.17407967319875

>  <compound_id>  (783) 
25818

>  <target_id>  (783) 
1

>  <reference_id>  (783) 
39

>  <inspiration_ids>  (783) 
[66, 39]

>  <energy_score>  (783) 
55.18307043638163

>  <distance_score>  (783) 
14.64882114578646

>  <path>  (783) 
/opt/xchem-fragalysis-2/maxwin/BulkDock/SCRATCH/511016/C25818-P39/C25818-P39.minimised.mol

>  <scratch_subdir>  (783) 
/opt/xchem-fragalysis-2/maxwin/BulkDock/SCRATCH/511016/C25818-P39

>  <fragmenstein_runtime>  (783) 
36.40920925140381

>  <fragmenstein_outcome>  (783) 
too moved

>  <fragmenstein_mode>  (783) 
expansion

>  <fragmenstein_error>  (783) 


$$$$
C25819-P66
     RDKit          3D

 33 35  0  0  0  0  0  0  0  0999 V2000
    4.5848  -16.8605   13.9869 C   0  0  0  0  0  0  0  0  0  0  0  0
    3.1485  -17.1728   14.3323 C   0  0  0  0  0  0  0  0  0  0  0  0
    2.0091  -16.4335   14.0890 C   0  0  0  0  0  0  0  0  0  0  0  0
    0.8229  -17.0731   14.5878 C   0  0  0  0  0  0  0  0  0  0  0  0
    1.0478  -18.2910   15.2315 C   0  0  0  0  0  0  0  0  0  0  0  0
   -0.0113  -19.3240   15.8042 C   0  0  0  0  0  0  0  0  0  0  0  0
   -0.3311  -19.3799   17.3688 C   0  0  0  0  0  0  0  0  0  0  0  0
    0.4459  -18.8958   18.1454 O   0  0  0  0  0  0  0  0  0  0  0  0
   -1.6161  -20.1082   17.6060 N   0  0  0  0  0  0  0  0  0  0  0  0
   -2.3485  -20.3615   18.8262 C   0  0  0  0  0  0  0  0  0  0  0  0
   -1.9352  -19.9432   20.0942 C   0  0  0  0  0  0  0  0  0  0  0  0
   -2.6800  -20.2160   21.2767 C   0  0  0  0  0  0  0  0  0  0  0  0
   -3.8688  -20.9522   21.1747 C   0  0  0  0  0  0  0  0  0  0  0  0
   -4.7609  -21.3787   22.1376 N   0  0  0  0  0  0  0  0  0  0  0  0
   -5.7826  -22.0850   21.5586 C   0  0  0  0  0  0  0  0  0  0  0  0
   -5.5463  -22.1165   20.2012 C   0  0  0  0  0  0  0  0  0  0  0  0
   -4.3342  -21.4029   19.9419 C   0  0  0  0  0  0  0  0  0  0  0  0
   -3.5677  -21.0919   18.7716 C   0  0  0  0  0  0  0  0  0  0  0  0
    2.7316  -18.6685   15.0904 S   0  0  0  0  0  0  0  0  0  0  0  0
    5.0130  -17.6830   13.4030 H   0  0  0  0  0  0  0  0  0  0  0  0
    4.6641  -15.9579   13.3746 H   0  0  0  0  0  0  0  0  0  0  0  0
    5.1822  -16.7468   14.8942 H   0  0  0  0  0  0  0  0  0  0  0  0
    1.9944  -15.4846   13.5671 H   0  0  0  0  0  0  0  0  0  0  0  0
   -0.1691  -16.6499   14.4806 H   0  0  0  0  0  0  0  0  0  0  0  0
    0.3083  -20.3321   15.5121 H   0  0  0  0  0  0  0  0  0  0  0  0
   -0.9547  -19.1129   15.2842 H   0  0  0  0  0  0  0  0  0  0  0  0
   -2.0550  -20.3069   16.7172 H   0  0  0  0  0  0  0  0  0  0  0  0
   -1.0054  -19.3833   20.2017 H   0  0  0  0  0  0  0  0  0  0  0  0
   -2.3071  -19.8639   22.2347 H   0  0  0  0  0  0  0  0  0  0  0  0
   -4.6542  -21.2058   23.1268 H   0  0  0  0  0  0  0  0  0  0  0  0
   -6.5839  -22.5063   22.1516 H   0  0  0  0  0  0  0  0  0  0  0  0
   -6.1760  -22.6035   19.4680 H   0  0  0  0  0  0  0  0  0  0  0  0
   -3.9367  -21.4517   17.8154 H   0  0  0  0  0  0  0  0  0  0  0  0
  1  2  1  0
  2  3  2  0
  3  4  1  0
  4  5  2  0
  5  6  1  0
  6  7  1  0
  7  8  2  0
  7  9  1  0
  9 10  1  0
 10 11  2  0
 11 12  1  0
 12 13  2  0
 13 14  1  0
 14 15  1  0
 15 16  2  0
 16 17  1  0
 17 18  2  0
  5 19  1  0
 19  2  1  0
 18 10  1  0
 17 13  1  0
  1 20  1  0
  1 21  1  0
  1 22  1  0
  3 23  1  0
  4 24  1  0
  6 25  1  0
  6 26  1  0
  9 27  1  0
 11 28  1  0
 12 29  1  0
 14 30  1  0
 15 31  1  0
 16 32  1  0
 18 33  1  0
M  END
>  <Energy>  (784) 
43.719915146138561

>  <compound_id>  (784) 
25819

>  <target_id>  (784) 
1

>  <reference_id>  (784) 
66

>  <inspiration_ids>  (784) 
[66, 39]

>  <energy_score>  (784) 
-30.368549344324208

>  <distance_score>  (784) 
16.464614959334206

>  <path>  (784) 
/opt/xchem-fragalysis-2/maxwin/BulkDock/SCRATCH/511016/C25819-P66/C25819-P66.minimised.mol

>  <scratch_subdir>  (784) 
/opt/xchem-fragalysis-2/maxwin/BulkDock/SCRATCH/511016/C25819-P66

>  <fragmenstein_runtime>  (784) 
22.60924482345581

>  <fragmenstein_outcome>  (784) 
too moved

>  <fragmenstein_mode>  (784) 
expansion

>  <fragmenstein_error>  (784) 


$$$$
C25819-P39
     RDKit          3D

 33 35  0  0  0  0  0  0  0  0999 V2000
    2.2798  -19.8149   25.3176 C   0  0  0  0  0  0  0  0  0  0  0  0
    0.8832  -19.9189   25.9072 C   0  0  0  0  0  0  0  0  0  0  0  0
    0.4184  -19.3570   27.0787 C   0  0  0  0  0  0  0  0  0  0  0  0
   -0.9468  -19.7114   27.3707 C   0  0  0  0  0  0  0  0  0  0  0  0
   -1.5264  -20.6046   26.4706 C   0  0  0  0  0  0  0  0  0  0  0  0
   -3.0367  -21.1150   26.3947 C   0  0  0  0  0  0  0  0  0  0  0  0
   -3.7064  -22.3757   27.2267 C   0  0  0  0  0  0  0  0  0  0  0  0
   -3.0632  -23.2887   27.6724 O   0  0  0  0  0  0  0  0  0  0  0  0
   -5.2037  -22.1554   27.1876 N   0  0  0  0  0  0  0  0  0  0  0  0
   -6.3597  -23.0611   27.6061 C   0  0  0  0  0  0  0  0  0  0  0  0
   -6.2474  -24.2667   28.3866 C   0  0  0  0  0  0  0  0  0  0  0  0
   -7.8538  -25.1877   28.8892 C   0  0  0  0  0  0  0  0  0  0  0  0
   -9.1933  -24.7990   28.4969 C   0  0  0  0  0  0  0  0  0  0  0  0
  -10.4325  -25.2595   28.8389 N   0  0  0  0  0  0  0  0  0  0  0  0
  -11.3741  -24.3493   28.4452 C   0  0  0  0  0  0  0  0  0  0  0  0
  -10.7124  -23.2676   27.9027 C   0  0  0  0  0  0  0  0  0  0  0  0
   -9.3012  -23.5496   27.8850 C   0  0  0  0  0  0  0  0  0  0  0  0
   -7.9693  -22.7682   27.5308 C   0  0  0  0  0  0  0  0  0  0  0  0
   -0.3884  -20.8130   25.1479 S   0  0  0  0  0  0  0  0  0  0  0  0
    2.3584  -20.3536   24.3693 H   0  0  0  0  0  0  0  0  0  0  0  0
    2.9852  -20.2867   26.0115 H   0  0  0  0  0  0  0  0  0  0  0  0
    2.5968  -18.7832   25.1887 H   0  0  0  0  0  0  0  0  0  0  0  0
    1.0260  -18.7282   27.7181 H   0  0  0  0  0  0  0  0  0  0  0  0
   -1.4760  -19.3491   28.2443 H   0  0  0  0  0  0  0  0  0  0  0  0
   -3.2479  -21.3343   25.3390 H   0  0  0  0  0  0  0  0  0  0  0  0
   -3.6292  -20.2269   26.6567 H   0  0  0  0  0  0  0  0  0  0  0  0
   -5.3928  -21.2457   26.8145 H   0  0  0  0  0  0  0  0  0  0  0  0
   -5.3579  -24.3699   28.9828 H   0  0  0  0  0  0  0  0  0  0  0  0
   -7.9522  -25.3638   29.9768 H   0  0  0  0  0  0  0  0  0  0  0  0
  -10.6089  -26.1150   29.3501 H   0  0  0  0  0  0  0  0  0  0  0  0
  -12.4244  -24.5216   28.6366 H   0  0  0  0  0  0  0  0  0  0  0  0
  -11.2049  -22.3604   27.5752 H   0  0  0  0  0  0  0  0  0  0  0  0
   -8.3406  -21.7781   27.3794 H   0  0  0  0  0  0  0  0  0  0  0  0
  1  2  1  0
  2  3  2  0
  3  4  1  0
  4  5  2  0
  5  6  1  0
  6  7  1  0
  7  8  2  0
  7  9  1  0
  9 10  1  0
 10 11  2  0
 11 12  1  0
 12 13  2  0
 13 14  1  0
 14 15  1  0
 15 16  2  0
 16 17  1  0
 17 18  2  0
  5 19  1  0
 19  2  1  0
 18 10  1  0
 17 13  1  0
  1 20  1  0
  1 21  1  0
  1 22  1  0
  3 23  1  0
  4 24  1  0
  6 25  1  0
  6 26  1  0
  9 27  1  0
 11 28  1  0
 12 29  1  0
 14 30  1  0
 15 31  1  0
 16 32  1  0
 18 33  1  0
M  END
>  <Energy>  (785) 
199.50117523901577

>  <compound_id>  (785) 
25819

>  <target_id>  (785) 
1

>  <reference_id>  (785) 
39

>  <inspiration_ids>  (785) 
[66, 39]

>  <energy_score>  (785) 
125.4127107485582

>  <distance_score>  (785) 
16.61291919432904

>  <path>  (785) 
/opt/xchem-fragalysis-2/maxwin/BulkDock/SCRATCH/511016/C25819-P39/C25819-P39.minimised.mol

>  <scratch_subdir>  (785) 
/opt/xchem-fragalysis-2/maxwin/BulkDock/SCRATCH/511016/C25819-P39

>  <fragmenstein_runtime>  (785) 
17.349342584609985

>  <fragmenstein_outcome>  (785) 
too moved

>  <fragmenstein_mode>  (785) 
expansion

>  <fragmenstein_error>  (785) 


$$$$
C25820-P66
     RDKit          3D

 38 40  0  0  0  0  0  0  0  0999 V2000
    4.6723  -12.9334   19.5975 C   0  0  0  0  0  0  0  0  0  0  0  0
    3.8337  -13.7914   18.6015 C   0  0  0  0  0  0  0  0  0  0  0  0
    4.2571  -14.7743   17.8213 C   0  0  0  0  0  0  0  0  0  0  0  0
    3.6358  -15.6033   18.5370 C   0  0  0  0  0  0  0  0  0  0  0  0
    2.5120  -16.0360   17.8494 C   0  0  0  0  0  0  0  0  0  0  0  0
    1.8841  -17.9521   17.7162 C   0  0  0  0  0  0  0  0  0  0  0  0
    1.7453  -18.3930   16.2363 C   0  0  0  0  0  0  0  0  0  0  0  0
    1.0302  -19.0364   18.5487 N   0  0  0  0  0  0  0  0  0  0  0  0
   -0.5079  -19.2739   18.6270 C   0  0  0  0  0  0  0  0  0  0  0  0
   -1.3702  -18.7526   18.0212 O   0  0  0  0  0  0  0  0  0  0  0  0
   -0.5948  -20.2907   19.7769 N   0  0  0  0  0  0  0  0  0  0  0  0
   -1.7387  -20.8092   20.4892 C   0  0  0  0  0  0  0  0  0  0  0  0
   -3.0456  -20.4469   20.1267 C   0  0  0  0  0  0  0  0  0  0  0  0
   -4.2033  -20.9281   20.7857 C   0  0  0  0  0  0  0  0  0  0  0  0
   -4.0314  -21.8173   21.8474 C   0  0  0  0  0  0  0  0  0  0  0  0
   -4.9609  -22.4840   22.6156 N   0  0  0  0  0  0  0  0  0  0  0  0
   -4.3280  -23.2495   23.5592 C   0  0  0  0  0  0  0  0  0  0  0  0
   -2.9704  -23.0797   23.3897 C   0  0  0  0  0  0  0  0  0  0  0  0
   -2.7618  -22.1920   22.2874 C   0  0  0  0  0  0  0  0  0  0  0  0
   -1.6111  -21.6704   21.6045 C   0  0  0  0  0  0  0  0  0  0  0  0
    2.1256  -14.3562   18.0387 S   0  0  0  0  0  0  0  0  0  0  0  0
    5.2420  -12.0968   19.2149 H   0  0  0  0  0  0  0  0  0  0  0  0
    4.2183  -12.7656   20.5690 H   0  0  0  0  0  0  0  0  0  0  0  0
    5.5569  -13.5110   19.8627 H   0  0  0  0  0  0  0  0  0  0  0  0
    5.1585  -15.1213   17.5173 H   0  0  0  0  0  0  0  0  0  0  0  0
    4.4363  -16.1447   19.0278 H   0  0  0  0  0  0  0  0  0  0  0  0
    1.1166  -17.5493   18.3582 H   0  0  0  0  0  0  0  0  0  0  0  0
    2.1781  -19.3918   16.1113 H   0  0  0  0  0  0  0  0  0  0  0  0
    0.6972  -18.4587   15.9240 H   0  0  0  0  0  0  0  0  0  0  0  0
    2.2659  -17.7196   15.5517 H   0  0  0  0  0  0  0  0  0  0  0  0
    1.5018  -19.7036   19.1401 H   0  0  0  0  0  0  0  0  0  0  0  0
    0.3288  -20.4753   20.1291 H   0  0  0  0  0  0  0  0  0  0  0  0
   -3.1973  -19.7639   19.2922 H   0  0  0  0  0  0  0  0  0  0  0  0
   -5.1887  -20.6265   20.4459 H   0  0  0  0  0  0  0  0  0  0  0  0
   -5.9613  -22.4238   22.4824 H   0  0  0  0  0  0  0  0  0  0  0  0
   -4.8938  -23.8479   24.2605 H   0  0  0  0  0  0  0  0  0  0  0  0
   -2.1977  -23.5566   23.9777 H   0  0  0  0  0  0  0  0  0  0  0  0
   -0.6234  -21.9561   21.9552 H   0  0  0  0  0  0  0  0  0  0  0  0
  1  2  1  0
  2  3  2  0
  3  4  1  0
  4  5  2  0
  5  6  1  0
  6  7  1  0
  6  8  1  0
  8  9  1  0
  9 10  2  0
  9 11  1  0
 11 12  1  0
 12 13  2  0
 13 14  1  0
 14 15  2  0
 15 16  1  0
 16 17  1  0
 17 18  2  0
 18 19  1  0
 19 20  2  0
  5 21  1  0
 21  2  1  0
 20 12  1  0
 19 15  1  0
  1 22  1  0
  1 23  1  0
  1 24  1  0
  3 25  1  0
  4 26  1  0
  6 27  1  0
  7 28  1  0
  7 29  1  0
  7 30  1  0
  8 31  1  0
 11 32  1  0
 13 33  1  0
 14 34  1  0
 16 35  1  0
 17 36  1  0
 18 37  1  0
 20 38  1  0
M  END
>  <Energy>  (786) 
293.42795154650042

>  <compound_id>  (786) 
25820

>  <target_id>  (786) 
1

>  <reference_id>  (786) 
66

>  <inspiration_ids>  (786) 
[66, 39]

>  <energy_score>  (786) 
293.33118168928115

>  <distance_score>  (786) 
14.69970310457066

>  <path>  (786) 
/opt/xchem-fragalysis-2/maxwin/BulkDock/SCRATCH/511016/C25820-P66/C25820-P66.minimised.mol

>  <scratch_subdir>  (786) 
/opt/xchem-fragalysis-2/maxwin/BulkDock/SCRATCH/511016/C25820-P66

>  <fragmenstein_runtime>  (786) 
36.50256562232971

>  <fragmenstein_outcome>  (786) 
too moved

>  <fragmenstein_mode>  (786) 
expansion

>  <fragmenstein_error>  (786) 


$$$$
C25820-P39
     RDKit          3D

 38 40  0  0  0  0  0  0  0  0999 V2000
    1.8188   -5.5207   18.7205 C   0  0  0  0  0  0  0  0  0  0  0  0
    0.6765   -6.2933   19.3381 C   0  0  0  0  0  0  0  0  0  0  0  0
    0.1982   -6.2526   20.6306 C   0  0  0  0  0  0  0  0  0  0  0  0
   -0.9071   -7.1560   20.8717 C   0  0  0  0  0  0  0  0  0  0  0  0
   -1.3268   -7.8474   19.7482 C   0  0  0  0  0  0  0  0  0  0  0  0
   -2.5589   -8.7603   19.4271 C   0  0  0  0  0  0  0  0  0  0  0  0
   -3.6473   -7.8896   18.7736 C   0  0  0  0  0  0  0  0  0  0  0  0
   -3.2769   -9.6454   20.4248 N   0  0  0  0  0  0  0  0  0  0  0  0
   -4.0187  -10.9988   20.2265 C   0  0  0  0  0  0  0  0  0  0  0  0
   -4.1040  -11.6565   19.2594 O   0  0  0  0  0  0  0  0  0  0  0  0
   -4.6687  -11.2262   21.6249 N   0  0  0  0  0  0  0  0  0  0  0  0
   -5.4628  -12.3425   22.1358 C   0  0  0  0  0  0  0  0  0  0  0  0
   -5.8946  -13.3589   21.2698 C   0  0  0  0  0  0  0  0  0  0  0  0
   -6.5457  -14.5433   21.7010 C   0  0  0  0  0  0  0  0  0  0  0  0
   -6.7606  -14.7238   23.0672 C   0  0  0  0  0  0  0  0  0  0  0  0
   -7.3210  -15.7831   23.7523 N   0  0  0  0  0  0  0  0  0  0  0  0
   -7.3140  -15.5233   25.0959 C   0  0  0  0  0  0  0  0  0  0  0  0
   -6.7400  -14.2805   25.2750 C   0  0  0  0  0  0  0  0  0  0  0  0
   -6.3785  -13.7537   23.9928 C   0  0  0  0  0  0  0  0  0  0  0  0
   -5.7416  -12.5483   23.5141 C   0  0  0  0  0  0  0  0  0  0  0  0
   -0.2486   -7.3993   18.4122 S   0  0  0  0  0  0  0  0  0  0  0  0
    2.5260   -6.1932   18.2273 H   0  0  0  0  0  0  0  0  0  0  0  0
    1.4315   -4.8185   17.9748 H   0  0  0  0  0  0  0  0  0  0  0  0
    2.3528   -4.9419   19.4796 H   0  0  0  0  0  0  0  0  0  0  0  0
    0.6139   -5.6054   21.3929 H   0  0  0  0  0  0  0  0  0  0  0  0
   -1.4031   -7.2378   21.8298 H   0  0  0  0  0  0  0  0  0  0  0  0
   -2.2250   -9.4729   18.6611 H   0  0  0  0  0  0  0  0  0  0  0  0
   -4.4799   -8.5055   18.4151 H   0  0  0  0  0  0  0  0  0  0  0  0
   -4.0550   -7.1716   19.4948 H   0  0  0  0  0  0  0  0  0  0  0  0
   -3.2633   -7.3245   17.9180 H   0  0  0  0  0  0  0  0  0  0  0  0
   -3.4624   -9.2980   21.3459 H   0  0  0  0  0  0  0  0  0  0  0  0
   -4.3356  -10.5287   22.2625 H   0  0  0  0  0  0  0  0  0  0  0  0
   -5.7099  -13.2646   20.1993 H   0  0  0  0  0  0  0  0  0  0  0  0
   -6.8357  -15.2966   20.9736 H   0  0  0  0  0  0  0  0  0  0  0  0
   -7.6608  -16.6293   23.3149 H   0  0  0  0  0  0  0  0  0  0  0  0
   -7.7057  -16.2363   25.8082 H   0  0  0  0  0  0  0  0  0  0  0  0
   -6.5858  -13.7965   26.2307 H   0  0  0  0  0  0  0  0  0  0  0  0
   -5.4292  -11.8111   24.2474 H   0  0  0  0  0  0  0  0  0  0  0  0
  1  2  1  0
  2  3  2  0
  3  4  1  0
  4  5  2  0
  5  6  1  0
  6  7  1  0
  6  8  1  0
  8  9  1  0
  9 10  2  0
  9 11  1  0
 11 12  1  0
 12 13  2  0
 13 14  1  0
 14 15  2  0
 15 16  1  0
 16 17  1  0
 17 18  2  0
 18 19  1  0
 19 20  2  0
  5 21  1  0
 21  2  1  0
 20 12  1  0
 19 15  1  0
  1 22  1  0
  1 23  1  0
  1 24  1  0
  3 25  1  0
  4 26  1  0
  6 27  1  0
  7 28  1  0
  7 29  1  0
  7 30  1  0
  8 31  1  0
 11 32  1  0
 13 33  1  0
 14 34  1  0
 16 35  1  0
 17 36  1  0
 18 37  1  0
 20 38  1  0
M  END
>  <Energy>  (787) 
-14.600739622377681

>  <compound_id>  (787) 
25820

>  <target_id>  (787) 
1

>  <reference_id>  (787) 
39

>  <inspiration_ids>  (787) 
[66, 39]

>  <energy_score>  (787) 
-14.69750947958255

>  <distance_score>  (787) 
14.677173988824402

>  <path>  (787) 
/opt/xchem-fragalysis-2/maxwin/BulkDock/SCRATCH/511016/C25820-P39/C25820-P39.minimised.mol

>  <scratch_subdir>  (787) 
/opt/xchem-fragalysis-2/maxwin/BulkDock/SCRATCH/511016/C25820-P39

>  <fragmenstein_runtime>  (787) 
41.78138828277588

>  <fragmenstein_outcome>  (787) 
too moved

>  <fragmenstein_mode>  (787) 
expansion

>  <fragmenstein_error>  (787) 


$$$$
C25821-P66
     RDKit          3D

 38 40  0  0  0  0  0  0  0  0999 V2000
    1.1311  -13.4850   25.8446 N   0  0  0  0  0  0  0  0  0  0  0  0
    0.8885  -13.9548   24.1054 C   0  0  0  0  0  0  0  0  0  0  0  0
    2.5638  -12.8651   23.6655 C   0  0  0  0  0  0  0  0  0  0  0  0
    3.7409  -12.0653   22.3766 C   0  0  0  0  0  0  0  0  0  0  0  0
    4.4168  -10.6612   22.2071 C   0  0  0  0  0  0  0  0  0  0  0  0
    5.5013  -10.4357   21.2546 C   0  0  0  0  0  0  0  0  0  0  0  0
    5.7493  -11.5025   20.4361 C   0  0  0  0  0  0  0  0  0  0  0  0
    4.6314  -12.8260   20.5892 S   0  0  0  0  0  0  0  0  0  0  0  0
   -0.9950  -14.7090   23.8315 C   0  0  0  0  0  0  0  0  0  0  0  0
   -1.1236  -15.1107   22.6632 O   0  0  0  0  0  0  0  0  0  0  0  0
   -2.0892  -14.8625   25.0400 N   0  0  0  0  0  0  0  0  0  0  0  0
   -3.4859  -15.3972   25.0432 C   0  0  0  0  0  0  0  0  0  0  0  0
   -3.8200  -16.5876   25.9474 C   0  0  0  0  0  0  0  0  0  0  0  0
   -4.2228  -16.4051   27.2801 C   0  0  0  0  0  0  0  0  0  0  0  0
   -4.5007  -17.4885   28.1330 C   0  0  0  0  0  0  0  0  0  0  0  0
   -4.3142  -18.7764   27.6226 C   0  0  0  0  0  0  0  0  0  0  0  0
   -4.3434  -19.9952   28.2546 N   0  0  0  0  0  0  0  0  0  0  0  0
   -4.1182  -21.0068   27.3570 C   0  0  0  0  0  0  0  0  0  0  0  0
   -3.8834  -20.4281   26.1320 C   0  0  0  0  0  0  0  0  0  0  0  0
   -3.9763  -19.0168   26.2958 C   0  0  0  0  0  0  0  0  0  0  0  0
   -3.7654  -17.9083   25.4461 C   0  0  0  0  0  0  0  0  0  0  0  0
    2.1262  -13.2703   25.9356 H   0  0  0  0  0  0  0  0  0  0  0  0
    0.7497  -12.5432   25.7823 H   0  0  0  0  0  0  0  0  0  0  0  0
    1.4515  -14.7180   23.5216 H   0  0  0  0  0  0  0  0  0  0  0  0
    3.2941  -13.4147   24.2433 H   0  0  0  0  0  0  0  0  0  0  0  0
    2.2092  -11.9385   24.0598 H   0  0  0  0  0  0  0  0  0  0  0  0
    4.0301   -9.7941   22.7097 H   0  0  0  0  0  0  0  0  0  0  0  0
    6.0152   -9.4873   21.1595 H   0  0  0  0  0  0  0  0  0  0  0  0
    6.4833  -11.5673   19.6446 H   0  0  0  0  0  0  0  0  0  0  0  0
   -1.7615  -14.3866   25.8212 H   0  0  0  0  0  0  0  0  0  0  0  0
   -3.7274  -15.6633   24.0073 H   0  0  0  0  0  0  0  0  0  0  0  0
   -4.1362  -14.5570   25.3145 H   0  0  0  0  0  0  0  0  0  0  0  0
   -4.3003  -15.3980   27.6872 H   0  0  0  0  0  0  0  0  0  0  0  0
   -4.7712  -17.3243   29.1720 H   0  0  0  0  0  0  0  0  0  0  0  0
   -4.5363  -20.1132   29.2437 H   0  0  0  0  0  0  0  0  0  0  0  0
   -4.1168  -22.0423   27.6676 H   0  0  0  0  0  0  0  0  0  0  0  0
   -3.6365  -20.9559   25.2197 H   0  0  0  0  0  0  0  0  0  0  0  0
   -3.4970  -18.0898   24.4082 H   0  0  0  0  0  0  0  0  0  0  0  0
  1  2  1  0
  2  3  1  0
  3  4  1  0
  4  5  2  0
  5  6  1  0
  6  7  2  0
  7  8  1  0
  2  9  1  0
  9 10  2  0
  9 11  1  0
 11 12  1  0
 12 13  1  0
 13 14  2  0
 14 15  1  0
 15 16  2  0
 16 17  1  0
 17 18  1  0
 18 19  2  0
 19 20  1  0
 20 21  2  0
  8  4  1  0
 21 13  1  0
 20 16  1  0
  1 22  1  0
  1 23  1  0
  2 24  1  0
  3 25  1  0
  3 26  1  0
  5 27  1  0
  6 28  1  0
  7 29  1  0
 11 30  1  0
 12 31  1  0
 12 32  1  0
 14 33  1  0
 15 34  1  0
 17 35  1  0
 18 36  1  0
 19 37  1  0
 21 38  1  0
M  END
>  <Energy>  (788) 
421.61532845022595

>  <compound_id>  (788) 
25821

>  <target_id>  (788) 
1

>  <reference_id>  (788) 
66

>  <inspiration_ids>  (788) 
[66, 39]

>  <energy_score>  (788) 
331.5733041973607

>  <distance_score>  (788) 
13.4367977499215

>  <path>  (788) 
/opt/xchem-fragalysis-2/maxwin/BulkDock/SCRATCH/511016/C25821-P66/C25821-P66.minimised.mol

>  <scratch_subdir>  (788) 
/opt/xchem-fragalysis-2/maxwin/BulkDock/SCRATCH/511016/C25821-P66

>  <fragmenstein_runtime>  (788) 
15.245734453201294

>  <fragmenstein_outcome>  (788) 
too moved

>  <fragmenstein_mode>  (788) 
expansion

>  <fragmenstein_error>  (788) 


$$$$
C25821-P39
     RDKit          3D

 38 40  0  0  0  0  0  0  0  0999 V2000
   -1.7495  -11.3205   19.1275 N   0  0  0  0  0  0  0  0  0  0  0  0
   -2.0022  -10.0670   19.8766 C   0  0  0  0  0  0  0  0  0  0  0  0
   -0.6894   -9.2839   20.3920 C   0  0  0  0  0  0  0  0  0  0  0  0
    0.3156   -8.6421   19.4044 C   0  0  0  0  0  0  0  0  0  0  0  0
    0.3635   -8.5607   18.0223 C   0  0  0  0  0  0  0  0  0  0  0  0
    1.5218   -7.8705   17.5239 C   0  0  0  0  0  0  0  0  0  0  0  0
    2.3340   -7.4206   18.5366 C   0  0  0  0  0  0  0  0  0  0  0  0
    1.6949   -7.8087   20.0735 S   0  0  0  0  0  0  0  0  0  0  0  0
   -3.1279  -10.4037   21.0556 C   0  0  0  0  0  0  0  0  0  0  0  0
   -3.1115   -9.7009   22.0328 O   0  0  0  0  0  0  0  0  0  0  0  0
   -4.0569  -11.4808   20.6645 N   0  0  0  0  0  0  0  0  0  0  0  0
   -5.3256  -11.9692   21.3084 C   0  0  0  0  0  0  0  0  0  0  0  0
   -5.5319  -13.2828   22.1407 C   0  0  0  0  0  0  0  0  0  0  0  0
   -5.7804  -13.2058   23.5313 C   0  0  0  0  0  0  0  0  0  0  0  0
   -6.1454  -14.3199   24.3253 C   0  0  0  0  0  0  0  0  0  0  0  0
   -6.2804  -15.5592   23.6937 C   0  0  0  0  0  0  0  0  0  0  0  0
   -6.6152  -16.7959   24.2035 N   0  0  0  0  0  0  0  0  0  0  0  0
   -6.6311  -17.7298   23.2029 C   0  0  0  0  0  0  0  0  0  0  0  0
   -6.3008  -17.0888   22.0298 C   0  0  0  0  0  0  0  0  0  0  0  0
   -6.0582  -15.7119   22.3257 C   0  0  0  0  0  0  0  0  0  0  0  0
   -5.6774  -14.5653   21.5545 C   0  0  0  0  0  0  0  0  0  0  0  0
   -1.3190  -11.9862   19.7664 H   0  0  0  0  0  0  0  0  0  0  0  0
   -1.0274  -11.1243   18.4310 H   0  0  0  0  0  0  0  0  0  0  0  0
   -2.5271   -9.3872   19.1927 H   0  0  0  0  0  0  0  0  0  0  0  0
   -1.0461   -8.4728   21.0418 H   0  0  0  0  0  0  0  0  0  0  0  0
   -0.1388   -9.9689   21.0462 H   0  0  0  0  0  0  0  0  0  0  0  0
   -0.3967   -8.9841   17.3777 H   0  0  0  0  0  0  0  0  0  0  0  0
    1.7372   -7.7193   16.4736 H   0  0  0  0  0  0  0  0  0  0  0  0
    3.2637   -6.8760   18.4553 H   0  0  0  0  0  0  0  0  0  0  0  0
   -3.7180  -11.9184   19.8082 H   0  0  0  0  0  0  0  0  0  0  0  0
   -6.0529  -12.0137   20.4879 H   0  0  0  0  0  0  0  0  0  0  0  0
   -5.6492  -11.1363   21.9455 H   0  0  0  0  0  0  0  0  0  0  0  0
   -5.7061  -12.2369   24.0275 H   0  0  0  0  0  0  0  0  0  0  0  0
   -6.3209  -14.2009   25.3901 H   0  0  0  0  0  0  0  0  0  0  0  0
   -6.7933  -16.9755   25.1814 H   0  0  0  0  0  0  0  0  0  0  0  0
   -6.8575  -18.7668   23.3998 H   0  0  0  0  0  0  0  0  0  0  0  0
   -6.2230  -17.5586   21.0577 H   0  0  0  0  0  0  0  0  0  0  0  0
   -5.5355  -14.6847   20.4826 H   0  0  0  0  0  0  0  0  0  0  0  0
  1  2  1  0
  2  3  1  0
  3  4  1  0
  4  5  2  0
  5  6  1  0
  6  7  2  0
  7  8  1  0
  2  9  1  0
  9 10  2  0
  9 11  1  0
 11 12  1  0
 12 13  1  0
 13 14  2  0
 14 15  1  0
 15 16  2  0
 16 17  1  0
 17 18  1  0
 18 19  2  0
 19 20  1  0
 20 21  2  0
  8  4  1  0
 21 13  1  0
 20 16  1  0
  1 22  1  0
  1 23  1  0
  2 24  1  0
  3 25  1  0
  3 26  1  0
  5 27  1  0
  6 28  1  0
  7 29  1  0
 11 30  1  0
 12 31  1  0
 12 32  1  0
 14 33  1  0
 15 34  1  0
 17 35  1  0
 18 36  1  0
 19 37  1  0
 21 38  1  0
M  END
>  <Energy>  (789) 
75.969168784723877

>  <compound_id>  (789) 
25821

>  <target_id>  (789) 
1

>  <reference_id>  (789) 
39

>  <inspiration_ids>  (789) 
[66, 39]

>  <energy_score>  (789) 
-14.072855468135685

>  <distance_score>  (789) 
14.804138098949535

>  <path>  (789) 
/opt/xchem-fragalysis-2/maxwin/BulkDock/SCRATCH/511016/C25821-P39/C25821-P39.minimised.mol

>  <scratch_subdir>  (789) 
/opt/xchem-fragalysis-2/maxwin/BulkDock/SCRATCH/511016/C25821-P39

>  <fragmenstein_runtime>  (789) 
21.033912658691406

>  <fragmenstein_outcome>  (789) 
too moved

>  <fragmenstein_mode>  (789) 
expansion

>  <fragmenstein_error>  (789) 


$$$$
C13493-P96
     RDKit          3D

 32 33  0  0  0  0  0  0  0  0999 V2000
    8.8744  -13.2863   23.9917 C   0  0  0  0  0  0  0  0  0  0  0  0
    8.0257  -12.2234   24.7169 C   0  0  0  0  0  0  0  0  0  0  0  0
    8.3220  -10.8586   24.0522 C   0  0  0  0  0  0  0  0  0  0  0  0
    8.5001  -12.1504   26.1692 C   0  0  0  0  0  0  0  0  0  0  0  0
    8.9484  -11.1747   26.7536 O   0  0  0  0  0  0  0  0  0  0  0  0
    8.4249  -13.3247   26.8376 O   0  0  0  0  0  0  0  0  0  0  0  0
    6.5893  -12.5338   24.7230 N   0  0  0  0  0  0  0  0  0  0  0  0
    5.9667  -13.7848   24.9179 C   0  0  0  0  0  0  0  0  0  0  0  0
    4.6419  -13.6505   25.4183 C   0  0  0  0  0  0  0  0  0  0  0  0
    3.6149  -14.7779   25.8999 N   0  0  0  0  0  0  0  0  0  0  0  0
    2.1757  -14.6407   26.7199 C   0  0  0  0  0  0  0  0  0  0  0  0
    1.6468  -13.6776   27.1904 O   0  0  0  0  0  0  0  0  0  0  0  0
    1.1490  -16.0040   26.8713 C   0  0  0  0  0  0  0  0  0  0  0  0
    1.0906  -17.4149   26.7149 C   0  0  0  0  0  0  0  0  0  0  0  0
   -0.2328  -17.9155   27.0493 C   0  0  0  0  0  0  0  0  0  0  0  0
   -1.0529  -16.9277   27.3835 N   0  0  0  0  0  0  0  0  0  0  0  0
   -0.2445  -15.8198   27.2734 N   0  0  0  0  0  0  0  0  0  0  0  0
    4.5797  -12.1831   25.2198 C   0  0  0  0  0  0  0  0  0  0  0  0
    5.6520  -11.5592   24.6622 N   0  0  0  0  0  0  0  0  0  0  0  0
    8.6261  -13.3464   22.9291 H   0  0  0  0  0  0  0  0  0  0  0  0
    8.7489  -14.2874   24.4173 H   0  0  0  0  0  0  0  0  0  0  0  0
    9.9427  -13.0488   24.0666 H   0  0  0  0  0  0  0  0  0  0  0  0
    7.8131  -10.0346   24.5668 H   0  0  0  0  0  0  0  0  0  0  0  0
    9.3949  -10.6323   24.0790 H   0  0  0  0  0  0  0  0  0  0  0  0
    8.0089  -10.8374   23.0037 H   0  0  0  0  0  0  0  0  0  0  0  0
    8.7359  -13.0978   27.7405 H   0  0  0  0  0  0  0  0  0  0  0  0
    6.5617  -14.6814   24.8292 H   0  0  0  0  0  0  0  0  0  0  0  0
    3.8080  -15.7515   25.7090 H   0  0  0  0  0  0  0  0  0  0  0  0
    1.9241  -18.0285   26.4022 H   0  0  0  0  0  0  0  0  0  0  0  0
   -0.5834  -18.9395   27.0400 H   0  0  0  0  0  0  0  0  0  0  0  0
   -0.6379  -14.9085   27.4833 H   0  0  0  0  0  0  0  0  0  0  0  0
    3.7206  -11.6081   25.5182 H   0  0  0  0  0  0  0  0  0  0  0  0
  1  2  1  0
  2  3  1  0
  2  4  1  0
  4  5  2  0
  4  6  1  0
  2  7  1  0
  7  8  1  0
  8  9  2  0
  9 10  1  0
 10 11  1  0
 11 12  2  0
 11 13  1  0
 13 14  2  0
 14 15  1  0
 15 16  2  0
 16 17  1  0
  9 18  1  0
 18 19  2  0
 19  7  1  0
 17 13  1  0
  1 20  1  0
  1 21  1  0
  1 22  1  0
  3 23  1  0
  3 24  1  0
  3 25  1  0
  6 26  1  0
  8 27  1  0
 10 28  1  0
 14 29  1  0
 15 30  1  0
 17 31  1  0
 18 32  1  0
M  END
>  <Energy>  (790) 
81.399503708575423

>  <compound_id>  (790) 
13493

>  <target_id>  (790) 
1

>  <reference_id>  (790) 
96

>  <inspiration_ids>  (790) 
[96, 122]

>  <energy_score>  (790) 
26.890464613015638

>  <distance_score>  (790) 
14.582762886893184

>  <path>  (790) 
/opt/xchem-fragalysis-2/maxwin/BulkDock/SCRATCH/511016/C13493-P96/C13493-P96.minimised.mol

>  <scratch_subdir>  (790) 
/opt/xchem-fragalysis-2/maxwin/BulkDock/SCRATCH/511016/C13493-P96

>  <fragmenstein_runtime>  (790) 
10.598199367523193

>  <fragmenstein_outcome>  (790) 
too moved

>  <fragmenstein_mode>  (790) 
expansion

>  <fragmenstein_error>  (790) 


$$$$
C13493-P122
     RDKit          3D

 32 33  0  0  0  0  0  0  0  0999 V2000
    0.8836  -15.8462   14.5002 C   0  0  0  0  0  0  0  0  0  0  0  0
    1.7359  -16.6320   15.5127 C   0  0  0  0  0  0  0  0  0  0  0  0
    3.0691  -17.0495   14.8202 C   0  0  0  0  0  0  0  0  0  0  0  0
    1.0384  -17.9869   15.7834 C   0  0  0  0  0  0  0  0  0  0  0  0
   -0.0184  -18.3461   15.2803 O   0  0  0  0  0  0  0  0  0  0  0  0
    1.7436  -18.8278   16.5912 O   0  0  0  0  0  0  0  0  0  0  0  0
    1.8610  -15.8600   16.7973 N   0  0  0  0  0  0  0  0  0  0  0  0
    0.7463  -15.8565   17.6716 C   0  0  0  0  0  0  0  0  0  0  0  0
    1.0477  -16.6500   18.7943 C   0  0  0  0  0  0  0  0  0  0  0  0
    0.1877  -17.3586   19.8413 N   0  0  0  0  0  0  0  0  0  0  0  0
   -1.4360  -17.4385   19.9973 C   0  0  0  0  0  0  0  0  0  0  0  0
   -2.2958  -17.0285   19.2858 O   0  0  0  0  0  0  0  0  0  0  0  0
   -2.1067  -18.2674   21.2845 C   0  0  0  0  0  0  0  0  0  0  0  0
   -1.7484  -19.0918   22.3765 C   0  0  0  0  0  0  0  0  0  0  0  0
   -2.9301  -19.4925   23.1093 C   0  0  0  0  0  0  0  0  0  0  0  0
   -4.0300  -18.9871   22.5629 N   0  0  0  0  0  0  0  0  0  0  0  0
   -3.5399  -18.3155   21.4677 N   0  0  0  0  0  0  0  0  0  0  0  0
    2.5210  -16.5079   18.6630 C   0  0  0  0  0  0  0  0  0  0  0  0
    2.9991  -15.9698   17.5259 N   0  0  0  0  0  0  0  0  0  0  0  0
    0.7778  -16.3999   13.5593 H   0  0  0  0  0  0  0  0  0  0  0  0
    1.3305  -14.8777   14.2608 H   0  0  0  0  0  0  0  0  0  0  0  0
   -0.1300  -15.6655   14.8745 H   0  0  0  0  0  0  0  0  0  0  0  0
    2.9867  -18.0414   14.3559 H   0  0  0  0  0  0  0  0  0  0  0  0
    3.3384  -16.3898   13.9915 H   0  0  0  0  0  0  0  0  0  0  0  0
    3.9174  -17.0991   15.5090 H   0  0  0  0  0  0  0  0  0  0  0  0
    2.5467  -18.4062   16.9624 H   0  0  0  0  0  0  0  0  0  0  0  0
   -0.2213  -15.5786   17.2726 H   0  0  0  0  0  0  0  0  0  0  0  0
    0.6304  -17.7382   20.6722 H   0  0  0  0  0  0  0  0  0  0  0  0
   -0.7339  -19.3705   22.6256 H   0  0  0  0  0  0  0  0  0  0  0  0
   -2.9949  -20.1123   23.9943 H   0  0  0  0  0  0  0  0  0  0  0  0
   -4.1963  -17.8661   20.8382 H   0  0  0  0  0  0  0  0  0  0  0  0
    3.2371  -16.9822   19.3028 H   0  0  0  0  0  0  0  0  0  0  0  0
  1  2  1  0
  2  3  1  0
  2  4  1  0
  4  5  2  0
  4  6  1  0
  2  7  1  0
  7  8  1  0
  8  9  2  0
  9 10  1  0
 10 11  1  0
 11 12  2  0
 11 13  1  0
 13 14  2  0
 14 15  1  0
 15 16  2  0
 16 17  1  0
  9 18  1  0
 18 19  2  0
 19  7  1  0
 17 13  1  0
  1 20  1  0
  1 21  1  0
  1 22  1  0
  3 23  1  0
  3 24  1  0
  3 25  1  0
  6 26  1  0
  8 27  1  0
 10 28  1  0
 14 29  1  0
 15 30  1  0
 17 31  1  0
 18 32  1  0
M  END
>  <Energy>  (791) 
84.116608183593343

>  <compound_id>  (791) 
13493

>  <target_id>  (791) 
1

>  <reference_id>  (791) 
122

>  <inspiration_ids>  (791) 
[96, 122]

>  <energy_score>  (791) 
29.60756908803478

>  <distance_score>  (791) 
14.796715115248276

>  <path>  (791) 
/opt/xchem-fragalysis-2/maxwin/BulkDock/SCRATCH/511016/C13493-P122/C13493-P122.minimised.mol

>  <scratch_subdir>  (791) 
/opt/xchem-fragalysis-2/maxwin/BulkDock/SCRATCH/511016/C13493-P122

>  <fragmenstein_runtime>  (791) 
13.467390298843384

>  <fragmenstein_outcome>  (791) 
too moved

>  <fragmenstein_mode>  (791) 
expansion

>  <fragmenstein_error>  (791) 


$$$$
C13494-P96
     RDKit          3D

 38 39  0  0  0  0  0  0  0  0999 V2000
    2.3290   -3.1575   10.3089 C   0  0  0  0  0  0  0  0  0  0  0  0
    2.6042   -2.4086   11.6304 C   0  0  0  0  0  0  0  0  0  0  0  0
    1.4178   -1.4302   11.8293 C   0  0  0  0  0  0  0  0  0  0  0  0
    3.8791   -1.5671   11.5066 C   0  0  0  0  0  0  0  0  0  0  0  0
    3.9607   -0.3860   11.8283 O   0  0  0  0  0  0  0  0  0  0  0  0
    4.9778   -2.1879   11.0190 O   0  0  0  0  0  0  0  0  0  0  0  0
    2.7116   -3.3627   12.7530 N   0  0  0  0  0  0  0  0  0  0  0  0
    3.4792   -4.4992   12.8006 C   0  0  0  0  0  0  0  0  0  0  0  0
    2.9339   -5.2600   13.8045 C   0  0  0  0  0  0  0  0  0  0  0  0
    1.9138   -4.4749   14.3836 C   0  0  0  0  0  0  0  0  0  0  0  0
    1.0704   -4.8963   15.3712 N   0  0  0  0  0  0  0  0  0  0  0  0
    0.7706   -6.2159   15.8531 C   0  0  0  0  0  0  0  0  0  0  0  0
    1.1241   -7.2896   15.4592 O   0  0  0  0  0  0  0  0  0  0  0  0
   -0.1202   -6.1756   17.1583 C   0  0  0  0  0  0  0  0  0  0  0  0
   -0.0448   -7.4808   18.0125 C   0  0  0  0  0  0  0  0  0  0  0  0
    0.6752   -8.1944   19.2958 C   0  0  0  0  0  0  0  0  0  0  0  0
    2.0690   -8.9973   20.4112 C   0  0  0  0  0  0  0  0  0  0  0  0
    1.3430  -10.2658   21.1207 C   0  0  0  0  0  0  0  0  0  0  0  0
   -0.0131  -10.2989   20.7559 N   0  0  0  0  0  0  0  0  0  0  0  0
   -0.5318   -9.2883   19.7084 N   0  0  0  0  0  0  0  0  0  0  0  0
    1.8842   -3.2625   13.8308 N   0  0  0  0  0  0  0  0  0  0  0  0
    3.1017   -3.8957   10.0702 H   0  0  0  0  0  0  0  0  0  0  0  0
    2.2838   -2.4601    9.4642 H   0  0  0  0  0  0  0  0  0  0  0  0
    1.3760   -3.6979   10.3541 H   0  0  0  0  0  0  0  0  0  0  0  0
    1.3478   -0.7198   10.9966 H   0  0  0  0  0  0  0  0  0  0  0  0
    1.5286   -0.8390   12.7465 H   0  0  0  0  0  0  0  0  0  0  0  0
    0.4618   -1.9637   11.8907 H   0  0  0  0  0  0  0  0  0  0  0  0
    4.9229   -3.1369   10.8010 H   0  0  0  0  0  0  0  0  0  0  0  0
    4.2545   -4.7317   12.0873 H   0  0  0  0  0  0  0  0  0  0  0  0
    3.1889   -6.2712   14.0787 H   0  0  0  0  0  0  0  0  0  0  0  0
    0.5308   -4.2233   15.8964 H   0  0  0  0  0  0  0  0  0  0  0  0
   -0.0647   -5.2438   17.7142 H   0  0  0  0  0  0  0  0  0  0  0  0
   -1.1360   -6.1519   16.7298 H   0  0  0  0  0  0  0  0  0  0  0  0
    0.2185   -8.1693   17.2313 H   0  0  0  0  0  0  0  0  0  0  0  0
   -1.1082   -7.5813   18.2718 H   0  0  0  0  0  0  0  0  0  0  0  0
    3.1386   -9.1866   20.1490 H   0  0  0  0  0  0  0  0  0  0  0  0
    1.8234  -11.0209   21.7305 H   0  0  0  0  0  0  0  0  0  0  0  0
   -1.4643   -9.3061   19.3061 H   0  0  0  0  0  0  0  0  0  0  0  0
  1  2  1  0
  2  3  1  0
  2  4  1  0
  4  5  2  0
  4  6  1  0
  2  7  1  0
  7  8  1  0
  8  9  2  0
  9 10  1  0
 10 11  1  0
 11 12  1  0
 12 13  2  0
 12 14  1  0
 14 15  1  0
 15 16  1  0
 16 17  2  0
 17 18  1  0
 18 19  2  0
 19 20  1  0
 10 21  2  0
 21  7  1  0
 20 16  1  0
  1 22  1  0
  1 23  1  0
  1 24  1  0
  3 25  1  0
  3 26  1  0
  3 27  1  0
  6 28  1  0
  8 29  1  0
  9 30  1  0
 11 31  1  0
 14 32  1  0
 14 33  1  0
 15 34  1  0
 15 35  1  0
 17 36  1  0
 18 37  1  0
 20 38  1  0
M  END
>  <Energy>  (792) 
238.6836284432444

>  <compound_id>  (792) 
13494

>  <target_id>  (792) 
1

>  <reference_id>  (792) 
96

>  <inspiration_ids>  (792) 
[96, 122]

>  <energy_score>  (792) 
206.96689100917843

>  <distance_score>  (792) 
16.664918478005184

>  <path>  (792) 
/opt/xchem-fragalysis-2/maxwin/BulkDock/SCRATCH/511016/C13494-P96/C13494-P96.minimised.mol

>  <scratch_subdir>  (792) 
/opt/xchem-fragalysis-2/maxwin/BulkDock/SCRATCH/511016/C13494-P96

>  <fragmenstein_runtime>  (792) 
23.589884757995605

>  <fragmenstein_outcome>  (792) 
too moved

>  <fragmenstein_mode>  (792) 
expansion

>  <fragmenstein_error>  (792) 


$$$$
C13494-P122
     RDKit          3D

 38 39  0  0  0  0  0  0  0  0999 V2000
    7.8485   -6.3524   15.2984 C   0  0  0  0  0  0  0  0  0  0  0  0
    7.7632   -4.7778   15.9435 C   0  0  0  0  0  0  0  0  0  0  0  0
    9.4571   -4.0101   15.1833 C   0  0  0  0  0  0  0  0  0  0  0  0
    7.0572   -3.1120   15.2203 C   0  0  0  0  0  0  0  0  0  0  0  0
    6.0240   -2.8969   14.6067 O   0  0  0  0  0  0  0  0  0  0  0  0
    7.7924   -1.9928   15.4924 O   0  0  0  0  0  0  0  0  0  0  0  0
    6.4945   -5.9495   16.7527 N   0  0  0  0  0  0  0  0  0  0  0  0
    6.0717   -5.8672   18.0788 C   0  0  0  0  0  0  0  0  0  0  0  0
    4.6923   -5.7564   18.0912 C   0  0  0  0  0  0  0  0  0  0  0  0
    4.1806   -6.4659   17.0561 C   0  0  0  0  0  0  0  0  0  0  0  0
    2.7799   -6.7549   17.0859 N   0  0  0  0  0  0  0  0  0  0  0  0
    1.7220   -6.3959   18.1011 C   0  0  0  0  0  0  0  0  0  0  0  0
    1.7874   -5.7091   19.0947 O   0  0  0  0  0  0  0  0  0  0  0  0
    0.2285   -6.9485   17.8887 C   0  0  0  0  0  0  0  0  0  0  0  0
   -0.2248   -8.1001   18.8509 C   0  0  0  0  0  0  0  0  0  0  0  0
   -1.3900   -8.3049   19.8591 C   0  0  0  0  0  0  0  0  0  0  0  0
   -2.7740   -8.3294   19.7675 C   0  0  0  0  0  0  0  0  0  0  0  0
   -3.2446   -9.0090   20.9246 C   0  0  0  0  0  0  0  0  0  0  0  0
   -2.2510   -9.3772   21.7338 N   0  0  0  0  0  0  0  0  0  0  0  0
   -1.1468   -8.9835   21.0531 N   0  0  0  0  0  0  0  0  0  0  0  0
    5.2354   -6.7370   16.2235 N   0  0  0  0  0  0  0  0  0  0  0  0
    6.9816   -7.0451   15.1774 H   0  0  0  0  0  0  0  0  0  0  0  0
    8.4078   -5.9354   14.4672 H   0  0  0  0  0  0  0  0  0  0  0  0
    8.6927   -7.0007   15.0272 H   0  0  0  0  0  0  0  0  0  0  0  0
   10.2899   -3.7996   15.9045 H   0  0  0  0  0  0  0  0  0  0  0  0
   10.1198   -4.6250   14.5514 H   0  0  0  0  0  0  0  0  0  0  0  0
    9.3096   -3.0598   14.6753 H   0  0  0  0  0  0  0  0  0  0  0  0
    7.3739   -1.3231   14.8884 H   0  0  0  0  0  0  0  0  0  0  0  0
    6.6526   -5.4363   18.8553 H   0  0  0  0  0  0  0  0  0  0  0  0
    4.1146   -5.2834   18.8720 H   0  0  0  0  0  0  0  0  0  0  0  0
    2.3979   -7.4169   16.4274 H   0  0  0  0  0  0  0  0  0  0  0  0
    0.1734   -7.2936   16.8487 H   0  0  0  0  0  0  0  0  0  0  0  0
   -0.4539   -6.0959   17.9804 H   0  0  0  0  0  0  0  0  0  0  0  0
    0.6931   -8.3928   19.3614 H   0  0  0  0  0  0  0  0  0  0  0  0
   -0.5332   -8.8256   18.1085 H   0  0  0  0  0  0  0  0  0  0  0  0
   -3.3675   -7.9819   18.9346 H   0  0  0  0  0  0  0  0  0  0  0  0
   -4.2644   -9.2530   21.1945 H   0  0  0  0  0  0  0  0  0  0  0  0
   -0.2358   -9.2818   21.3913 H   0  0  0  0  0  0  0  0  0  0  0  0
  1  2  1  0
  2  3  1  0
  2  4  1  0
  4  5  2  0
  4  6  1  0
  2  7  1  0
  7  8  1  0
  8  9  2  0
  9 10  1  0
 10 11  1  0
 11 12  1  0
 12 13  2  0
 12 14  1  0
 14 15  1  0
 15 16  1  0
 16 17  2  0
 17 18  1  0
 18 19  2  0
 19 20  1  0
 10 21  2  0
 21  7  1  0
 20 16  1  0
  1 22  1  0
  1 23  1  0
  1 24  1  0
  3 25  1  0
  3 26  1  0
  3 27  1  0
  6 28  1  0
  8 29  1  0
  9 30  1  0
 11 31  1  0
 14 32  1  0
 14 33  1  0
 15 34  1  0
 15 35  1  0
 17 36  1  0
 18 37  1  0
 20 38  1  0
M  END
>  <Energy>  (793) 
413.53092403044758

>  <compound_id>  (793) 
13494

>  <target_id>  (793) 
1

>  <reference_id>  (793) 
122

>  <inspiration_ids>  (793) 
[96, 122]

>  <energy_score>  (793) 
381.81418659637274

>  <distance_score>  (793) 
15.404156789168551

>  <path>  (793) 
/opt/xchem-fragalysis-2/maxwin/BulkDock/SCRATCH/511016/C13494-P122/C13494-P122.minimised.mol

>  <scratch_subdir>  (793) 
/opt/xchem-fragalysis-2/maxwin/BulkDock/SCRATCH/511016/C13494-P122

>  <fragmenstein_runtime>  (793) 
24.546696424484253

>  <fragmenstein_outcome>  (793) 
too moved

>  <fragmenstein_mode>  (793) 
expansion

>  <fragmenstein_error>  (793) 


$$$$
C13495-P96
     RDKit          3D

 35 36  0  0  0  0  0  0  0  0999 V2000
    5.4921   -9.6364   17.2226 C   0  0  0  0  0  0  0  0  0  0  0  0
    4.8445  -10.4861   18.0939 N   0  0  0  0  0  0  0  0  0  0  0  0
    3.7906  -10.4715   18.8939 C   0  0  0  0  0  0  0  0  0  0  0  0
    3.1130  -11.6236   18.6123 C   0  0  0  0  0  0  0  0  0  0  0  0
    2.1109  -12.5577   18.9652 N   0  0  0  0  0  0  0  0  0  0  0  0
    1.4614  -13.8388   18.0849 C   0  0  0  0  0  0  0  0  0  0  0  0
    1.6808  -14.1508   16.9376 O   0  0  0  0  0  0  0  0  0  0  0  0
    0.2937  -14.7310   19.2094 N   0  0  0  0  0  0  0  0  0  0  0  0
   -0.6007  -16.1611   18.9909 C   0  0  0  0  0  0  0  0  0  0  0  0
   -2.2025  -16.1882   18.6782 C   0  0  0  0  0  0  0  0  0  0  0  0
   -3.0285  -17.2086   19.3064 N   0  0  0  0  0  0  0  0  0  0  0  0
   -4.4407  -17.4420   19.2457 C   0  0  0  0  0  0  0  0  0  0  0  0
   -5.2920  -16.9073   18.6012 O   0  0  0  0  0  0  0  0  0  0  0  0
   -4.8612  -18.4382   20.2162 C   0  0  0  0  0  0  0  0  0  0  0  0
   -4.3066  -19.5924   20.7394 C   0  0  0  0  0  0  0  0  0  0  0  0
   -4.9934  -19.7980   21.9529 C   0  0  0  0  0  0  0  0  0  0  0  0
   -6.0153  -18.9484   22.1014 N   0  0  0  0  0  0  0  0  0  0  0  0
   -6.0138  -18.2593   20.9471 N   0  0  0  0  0  0  0  0  0  0  0  0
    3.6780  -11.9427   17.4251 C   0  0  0  0  0  0  0  0  0  0  0  0
    4.9121  -11.6706   17.6338 N   0  0  0  0  0  0  0  0  0  0  0  0
    4.9376   -9.6328   16.3092 H   0  0  0  0  0  0  0  0  0  0  0  0
    5.8857   -8.6804   17.2920 H   0  0  0  0  0  0  0  0  0  0  0  0
    6.5278   -9.9523   17.2779 H   0  0  0  0  0  0  0  0  0  0  0  0
    3.5637   -9.6705   19.5857 H   0  0  0  0  0  0  0  0  0  0  0  0
    1.8036  -12.6100   19.9012 H   0  0  0  0  0  0  0  0  0  0  0  0
    0.2173  -14.2471   20.0526 H   0  0  0  0  0  0  0  0  0  0  0  0
   -0.1428  -16.8897   18.3148 H   0  0  0  0  0  0  0  0  0  0  0  0
   -0.5365  -16.5573   19.9980 H   0  0  0  0  0  0  0  0  0  0  0  0
   -2.6668  -15.2063   18.8015 H   0  0  0  0  0  0  0  0  0  0  0  0
   -2.4050  -16.4521   17.6437 H   0  0  0  0  0  0  0  0  0  0  0  0
   -2.6048  -17.9061   19.9018 H   0  0  0  0  0  0  0  0  0  0  0  0
   -3.4345  -20.1222   20.3916 H   0  0  0  0  0  0  0  0  0  0  0  0
   -4.7906  -20.5349   22.7194 H   0  0  0  0  0  0  0  0  0  0  0  0
   -6.7288  -17.5567   20.7877 H   0  0  0  0  0  0  0  0  0  0  0  0
    3.4018  -12.7714   16.7980 H   0  0  0  0  0  0  0  0  0  0  0  0
  1  2  1  0
  2  3  1  0
  3  4  2  0
  4  5  1  0
  5  6  1  0
  6  7  2  0
  6  8  1  0
  8  9  1  0
  9 10  1  0
 10 11  1  0
 11 12  1  0
 12 13  2  0
 12 14  1  0
 14 15  2  0
 15 16  1  0
 16 17  2  0
 17 18  1  0
  4 19  1  0
 19 20  2  0
 20  2  1  0
 18 14  1  0
  1 21  1  0
  1 22  1  0
  1 23  1  0
  3 24  1  0
  5 25  1  0
  8 26  1  0
  9 27  1  0
  9 28  1  0
 10 29  1  0
 10 30  1  0
 11 31  1  0
 15 32  1  0
 16 33  1  0
 18 34  1  0
 19 35  1  0
M  END
>  <Energy>  (794) 
135.48534376324568

>  <compound_id>  (794) 
13495

>  <target_id>  (794) 
1

>  <reference_id>  (794) 
96

>  <inspiration_ids>  (794) 
[96, 122]

>  <energy_score>  (794) 
185.73442306436618

>  <distance_score>  (794) 
11.763465280204208

>  <path>  (794) 
/opt/xchem-fragalysis-2/maxwin/BulkDock/SCRATCH/511016/C13495-P96/C13495-P96.minimised.mol

>  <scratch_subdir>  (794) 
/opt/xchem-fragalysis-2/maxwin/BulkDock/SCRATCH/511016/C13495-P96

>  <fragmenstein_runtime>  (794) 
23.27513289451599

>  <fragmenstein_outcome>  (794) 
too moved

>  <fragmenstein_mode>  (794) 
expansion

>  <fragmenstein_error>  (794) 


$$$$
C13495-P122
     RDKit          3D

 35 36  0  0  0  0  0  0  0  0999 V2000
    9.8887   -5.8998   19.8239 C   0  0  0  0  0  0  0  0  0  0  0  0
    9.1828   -7.7654   19.8451 N   0  0  0  0  0  0  0  0  0  0  0  0
    7.3255   -8.0028   19.5164 C   0  0  0  0  0  0  0  0  0  0  0  0
    7.3610  -10.0318   19.5562 C   0  0  0  0  0  0  0  0  0  0  0  0
    5.9367  -11.0969   20.2779 N   0  0  0  0  0  0  0  0  0  0  0  0
    5.3100  -12.7323   19.8570 C   0  0  0  0  0  0  0  0  0  0  0  0
    5.7855  -13.4408   19.0931 O   0  0  0  0  0  0  0  0  0  0  0  0
    3.7022  -13.1458   20.6326 N   0  0  0  0  0  0  0  0  0  0  0  0
    2.4064  -14.6588   20.2849 C   0  0  0  0  0  0  0  0  0  0  0  0
    0.8036  -16.0116   20.4657 C   0  0  0  0  0  0  0  0  0  0  0  0
    0.1369  -17.4543   20.8069 N   0  0  0  0  0  0  0  0  0  0  0  0
   -1.1255  -18.0547   20.3677 C   0  0  0  0  0  0  0  0  0  0  0  0
   -1.9446  -17.6638   19.5833 O   0  0  0  0  0  0  0  0  0  0  0  0
   -1.5012  -19.2956   21.0777 C   0  0  0  0  0  0  0  0  0  0  0  0
   -0.8761  -20.2338   21.8810 C   0  0  0  0  0  0  0  0  0  0  0  0
   -1.9111  -21.0263   22.4334 C   0  0  0  0  0  0  0  0  0  0  0  0
   -3.1163  -20.6466   22.0099 N   0  0  0  0  0  0  0  0  0  0  0  0
   -2.8312  -19.6892   21.1040 N   0  0  0  0  0  0  0  0  0  0  0  0
    8.5407   -9.8505   18.6772 C   0  0  0  0  0  0  0  0  0  0  0  0
    9.5903   -8.9149   19.4393 N   0  0  0  0  0  0  0  0  0  0  0  0
   11.0149   -5.6387   19.9400 H   0  0  0  0  0  0  0  0  0  0  0  0
   10.0229   -5.8781   18.7936 H   0  0  0  0  0  0  0  0  0  0  0  0
   10.4192   -6.3902   20.6073 H   0  0  0  0  0  0  0  0  0  0  0  0
    6.8409   -7.4285   20.2549 H   0  0  0  0  0  0  0  0  0  0  0  0
    5.4063  -10.7188   21.0179 H   0  0  0  0  0  0  0  0  0  0  0  0
    3.4881  -12.4564   21.3298 H   0  0  0  0  0  0  0  0  0  0  0  0
    2.7439  -14.7699   21.2679 H   0  0  0  0  0  0  0  0  0  0  0  0
    2.6929  -14.8203   19.2177 H   0  0  0  0  0  0  0  0  0  0  0  0
   -0.2231  -15.8884   20.0558 H   0  0  0  0  0  0  0  0  0  0  0  0
    0.8346  -16.2369   19.4252 H   0  0  0  0  0  0  0  0  0  0  0  0
    0.6133  -18.1011   21.4174 H   0  0  0  0  0  0  0  0  0  0  0  0
    0.1817  -20.3150   22.0892 H   0  0  0  0  0  0  0  0  0  0  0  0
   -1.8284  -21.8483   23.1333 H   0  0  0  0  0  0  0  0  0  0  0  0
   -3.5869  -19.2535   20.5835 H   0  0  0  0  0  0  0  0  0  0  0  0
    8.9562  -10.5571   17.9539 H   0  0  0  0  0  0  0  0  0  0  0  0
  1  2  1  0
  2  3  1  0
  3  4  2  0
  4  5  1  0
  5  6  1  0
  6  7  2  0
  6  8  1  0
  8  9  1  0
  9 10  1  0
 10 11  1  0
 11 12  1  0
 12 13  2  0
 12 14  1  0
 14 15  2  0
 15 16  1  0
 16 17  2  0
 17 18  1  0
  4 19  1  0
 19 20  2  0
 20  2  1  0
 18 14  1  0
  1 21  1  0
  1 22  1  0
  1 23  1  0
  3 24  1  0
  5 25  1  0
  8 26  1  0
  9 27  1  0
  9 28  1  0
 10 29  1  0
 10 30  1  0
 11 31  1  0
 15 32  1  0
 16 33  1  0
 18 34  1  0
 19 35  1  0
M  END
>  <Energy>  (795) 
908.39313501632728

>  <compound_id>  (795) 
13495

>  <target_id>  (795) 
1

>  <reference_id>  (795) 
122

>  <inspiration_ids>  (795) 
[96, 122]

>  <energy_score>  (795) 
958.6422143174514

>  <distance_score>  (795) 
10.714157523982568

>  <path>  (795) 
/opt/xchem-fragalysis-2/maxwin/BulkDock/SCRATCH/511016/C13495-P122/C13495-P122.minimised.mol

>  <scratch_subdir>  (795) 
/opt/xchem-fragalysis-2/maxwin/BulkDock/SCRATCH/511016/C13495-P122

>  <fragmenstein_runtime>  (795) 
30.519396543502808

>  <fragmenstein_outcome>  (795) 
too moved

>  <fragmenstein_mode>  (795) 
expansion

>  <fragmenstein_error>  (795) 


$$$$
C13496-P96
     RDKit          3D

 38 39  0  0  0  0  0  0  0  0999 V2000
    5.4114  -11.3571   19.0807 O   0  0  0  0  0  0  0  0  0  0  0  0
    4.4123  -11.2028   18.6394 C   0  0  0  0  0  0  0  0  0  0  0  0
    2.9063  -12.2111   19.4417 N   0  0  0  0  0  0  0  0  0  0  0  0
    2.8434  -13.4893   21.1927 C   0  0  0  0  0  0  0  0  0  0  0  0
    2.9128  -15.3875   22.3944 C   0  0  0  0  0  0  0  0  0  0  0  0
    2.0936  -17.0988   23.2946 N   0  0  0  0  0  0  0  0  0  0  0  0
    0.4745  -18.2026   22.7865 C   0  0  0  0  0  0  0  0  0  0  0  0
   -0.2395  -17.8114   21.8880 O   0  0  0  0  0  0  0  0  0  0  0  0
   -0.1274  -19.9309   23.3274 C   0  0  0  0  0  0  0  0  0  0  0  0
   -1.4145  -20.4273   22.9587 C   0  0  0  0  0  0  0  0  0  0  0  0
   -1.7147  -21.5420   23.7592 C   0  0  0  0  0  0  0  0  0  0  0  0
   -0.7134  -21.8304   24.5813 N   0  0  0  0  0  0  0  0  0  0  0  0
    0.2296  -20.9194   24.2487 N   0  0  0  0  0  0  0  0  0  0  0  0
    4.4825   -9.9035   17.4400 N   0  0  0  0  0  0  0  0  0  0  0  0
    5.7693   -8.7514   16.9436 C   0  0  0  0  0  0  0  0  0  0  0  0
    6.8305   -9.1741   16.2534 C   0  0  0  0  0  0  0  0  0  0  0  0
    7.2962   -8.3447   15.4576 N   0  0  0  0  0  0  0  0  0  0  0  0
    7.2469   -7.2801   16.3447 N   0  0  0  0  0  0  0  0  0  0  0  0
    8.5154   -6.6432   17.1823 C   0  0  0  0  0  0  0  0  0  0  0  0
    9.7751   -6.2707   18.3988 C   0  0  0  0  0  0  0  0  0  0  0  0
   10.4924   -5.1795   18.0136 F   0  0  0  0  0  0  0  0  0  0  0  0
    9.3738   -6.0741   19.6692 F   0  0  0  0  0  0  0  0  0  0  0  0
    5.4598   -6.7758   16.8739 C   0  0  0  0  0  0  0  0  0  0  0  0
    2.0804  -11.9351   19.0293 H   0  0  0  0  0  0  0  0  0  0  0  0
    3.7125  -13.1987   21.7969 H   0  0  0  0  0  0  0  0  0  0  0  0
    2.0894  -12.8724   21.6666 H   0  0  0  0  0  0  0  0  0  0  0  0
    3.6180  -15.2142   23.2127 H   0  0  0  0  0  0  0  0  0  0  0  0
    3.2889  -16.0746   21.7657 H   0  0  0  0  0  0  0  0  0  0  0  0
    2.5370  -17.5132   24.1137 H   0  0  0  0  0  0  0  0  0  0  0  0
   -2.0915  -19.9431   22.2784 H   0  0  0  0  0  0  0  0  0  0  0  0
   -2.6204  -22.1337   23.7855 H   0  0  0  0  0  0  0  0  0  0  0  0
    1.1335  -21.0212   24.6787 H   0  0  0  0  0  0  0  0  0  0  0  0
    3.6711   -9.8624   17.0382 H   0  0  0  0  0  0  0  0  0  0  0  0
    7.5640   -9.9331   16.3738 H   0  0  0  0  0  0  0  0  0  0  0  0
    8.1262   -5.7225   16.9979 H   0  0  0  0  0  0  0  0  0  0  0  0
    9.2196   -7.2422   16.6650 H   0  0  0  0  0  0  0  0  0  0  0  0
   10.5779   -7.0226   18.4558 H   0  0  0  0  0  0  0  0  0  0  0  0
    5.4313   -5.9030   16.2200 H   0  0  0  0  0  0  0  0  0  0  0  0
  1  2  2  0
  2  3  1  0
  3  4  1  0
  4  5  1  0
  5  6  1  0
  6  7  1  0
  7  8  2  0
  7  9  1  0
  9 10  2  0
 10 11  1  0
 11 12  2  0
 12 13  1  0
  2 14  1  0
 14 15  1  0
 15 16  1  0
 16 17  2  0
 17 18  1  0
 18 19  1  0
 19 20  1  0
 20 21  1  0
 20 22  1  0
 18 23  1  0
 13  9  1  0
 23 15  2  0
  3 24  1  0
  4 25  1  0
  4 26  1  0
  5 27  1  0
  5 28  1  0
  6 29  1  0
 10 30  1  0
 11 31  1  0
 13 32  1  0
 14 33  1  0
 16 34  1  0
 19 35  1  0
 19 36  1  0
 20 37  1  0
 23 38  1  0
M  END
>  <Energy>  (796) 
1350.346193783937

>  <compound_id>  (796) 
13496

>  <target_id>  (796) 
1

>  <reference_id>  (796) 
96

>  <inspiration_ids>  (796) 
[96, 122]

>  <energy_score>  (796) 
1385.7507103951439

>  <distance_score>  (796) 
10.349265989774528

>  <path>  (796) 
/opt/xchem-fragalysis-2/maxwin/BulkDock/SCRATCH/511016/C13496-P96/C13496-P96.minimised.mol

>  <scratch_subdir>  (796) 
/opt/xchem-fragalysis-2/maxwin/BulkDock/SCRATCH/511016/C13496-P96

>  <fragmenstein_runtime>  (796) 
18.23614263534546

>  <fragmenstein_outcome>  (796) 
too moved

>  <fragmenstein_mode>  (796) 
expansion

>  <fragmenstein_error>  (796) 


$$$$
C13496-P122
     RDKit          3D

 38 39  0  0  0  0  0  0  0  0999 V2000
    3.8478  -11.4114   16.8097 O   0  0  0  0  0  0  0  0  0  0  0  0
    3.3719  -11.6843   15.7663 C   0  0  0  0  0  0  0  0  0  0  0  0
    1.8039  -12.7472   15.6362 N   0  0  0  0  0  0  0  0  0  0  0  0
    0.7608  -13.6950   17.0321 C   0  0  0  0  0  0  0  0  0  0  0  0
   -1.1737  -13.8037   17.6441 C   0  0  0  0  0  0  0  0  0  0  0  0
   -1.5965  -15.3149   18.8146 N   0  0  0  0  0  0  0  0  0  0  0  0
   -2.7719  -16.5056   18.6756 C   0  0  0  0  0  0  0  0  0  0  0  0
   -3.5576  -16.7270   17.7664 O   0  0  0  0  0  0  0  0  0  0  0  0
   -3.0555  -17.4048   19.8180 C   0  0  0  0  0  0  0  0  0  0  0  0
   -4.2003  -17.2709   20.6326 C   0  0  0  0  0  0  0  0  0  0  0  0
   -4.4434  -18.5020   21.2619 C   0  0  0  0  0  0  0  0  0  0  0  0
   -3.5385  -19.3979   20.8909 N   0  0  0  0  0  0  0  0  0  0  0  0
   -2.8561  -18.7573   19.9054 N   0  0  0  0  0  0  0  0  0  0  0  0
    3.8396  -11.1281   14.1379 N   0  0  0  0  0  0  0  0  0  0  0  0
    5.0196   -9.9556   13.6467 C   0  0  0  0  0  0  0  0  0  0  0  0
    4.8836   -8.7179   12.8675 C   0  0  0  0  0  0  0  0  0  0  0  0
    5.7877   -7.6927   13.0001 N   0  0  0  0  0  0  0  0  0  0  0  0
    6.7271   -7.9357   14.0244 N   0  0  0  0  0  0  0  0  0  0  0  0
    8.0750   -6.6984   14.8787 C   0  0  0  0  0  0  0  0  0  0  0  0
    8.7467   -4.6815   14.8407 C   0  0  0  0  0  0  0  0  0  0  0  0
    8.2364   -3.4214   14.3291 F   0  0  0  0  0  0  0  0  0  0  0  0
    8.0240   -4.3853   15.9722 F   0  0  0  0  0  0  0  0  0  0  0  0
    6.4388   -9.6478   13.4653 C   0  0  0  0  0  0  0  0  0  0  0  0
    1.5145  -12.7958   14.6741 H   0  0  0  0  0  0  0  0  0  0  0  0
    1.4645  -14.0246   17.8101 H   0  0  0  0  0  0  0  0  0  0  0  0
    0.7071  -14.5169   16.4310 H   0  0  0  0  0  0  0  0  0  0  0  0
   -1.8005  -14.0359   16.7659 H   0  0  0  0  0  0  0  0  0  0  0  0
   -1.5221  -12.8735   18.1104 H   0  0  0  0  0  0  0  0  0  0  0  0
   -1.1866  -15.3607   19.7073 H   0  0  0  0  0  0  0  0  0  0  0  0
   -4.8411  -16.4053   20.6738 H   0  0  0  0  0  0  0  0  0  0  0  0
   -5.2320  -18.7821   21.9480 H   0  0  0  0  0  0  0  0  0  0  0  0
   -2.2268  -19.3110   19.3322 H   0  0  0  0  0  0  0  0  0  0  0  0
    3.1877  -11.4723   13.4477 H   0  0  0  0  0  0  0  0  0  0  0  0
    4.1289   -8.4994   12.1313 H   0  0  0  0  0  0  0  0  0  0  0  0
    8.9476   -7.3262   14.7855 H   0  0  0  0  0  0  0  0  0  0  0  0
    7.2936   -6.5784   15.6747 H   0  0  0  0  0  0  0  0  0  0  0  0
    9.8550   -4.3956   14.9079 H   0  0  0  0  0  0  0  0  0  0  0  0
    6.8785   -9.5590   12.4805 H   0  0  0  0  0  0  0  0  0  0  0  0
  1  2  2  0
  2  3  1  0
  3  4  1  0
  4  5  1  0
  5  6  1  0
  6  7  1  0
  7  8  2  0
  7  9  1  0
  9 10  2  0
 10 11  1  0
 11 12  2  0
 12 13  1  0
  2 14  1  0
 14 15  1  0
 15 16  1  0
 16 17  2  0
 17 18  1  0
 18 19  1  0
 19 20  1  0
 20 21  1  0
 20 22  1  0
 18 23  1  0
 13  9  1  0
 23 15  2  0
  3 24  1  0
  4 25  1  0
  4 26  1  0
  5 27  1  0
  5 28  1  0
  6 29  1  0
 10 30  1  0
 11 31  1  0
 13 32  1  0
 14 33  1  0
 16 34  1  0
 19 35  1  0
 19 36  1  0
 20 37  1  0
 23 38  1  0
M  END
>  <Energy>  (797) 
786.7884333156469

>  <compound_id>  (797) 
13496

>  <target_id>  (797) 
1

>  <reference_id>  (797) 
122

>  <inspiration_ids>  (797) 
[96, 122]

>  <energy_score>  (797) 
822.1929499268505

>  <distance_score>  (797) 
11.313212357614233

>  <path>  (797) 
/opt/xchem-fragalysis-2/maxwin/BulkDock/SCRATCH/511016/C13496-P122/C13496-P122.minimised.mol

>  <scratch_subdir>  (797) 
/opt/xchem-fragalysis-2/maxwin/BulkDock/SCRATCH/511016/C13496-P122

>  <fragmenstein_runtime>  (797) 
27.673614978790283

>  <fragmenstein_outcome>  (797) 
too moved

>  <fragmenstein_mode>  (797) 
expansion

>  <fragmenstein_error>  (797) 


$$$$
C13497-P96
     RDKit          3D

 35 37  0  0  0  0  0  0  0  0999 V2000
    1.4355  -11.2445   22.8895 O   0  0  0  0  0  0  0  0  0  0  0  0
    1.0614  -11.4237   24.0898 C   0  0  0  0  0  0  0  0  0  0  0  0
   -0.1798  -11.5507   24.2510 O   0  0  0  0  0  0  0  0  0  0  0  0
   -1.8888  -12.2757   23.8450 C   0  0  0  0  0  0  0  0  0  0  0  0
   -2.9979  -13.1933   24.8412 C   0  0  0  0  0  0  0  0  0  0  0  0
   -3.0972  -13.5406   26.1912 C   0  0  0  0  0  0  0  0  0  0  0  0
   -4.1925  -14.4261   26.2920 C   0  0  0  0  0  0  0  0  0  0  0  0
   -4.7796  -14.6278   25.1142 N   0  0  0  0  0  0  0  0  0  0  0  0
   -4.0811  -13.8463   24.2670 N   0  0  0  0  0  0  0  0  0  0  0  0
    2.0024  -11.6386   25.5362 C   0  0  0  0  0  0  0  0  0  0  0  0
    3.3945  -12.0419   25.5254 C   0  0  0  0  0  0  0  0  0  0  0  0
    4.0095  -11.5079   26.6533 C   0  0  0  0  0  0  0  0  0  0  0  0
    3.1300  -10.8584   27.3984 N   0  0  0  0  0  0  0  0  0  0  0  0
    1.9207  -11.0818   26.8065 N   0  0  0  0  0  0  0  0  0  0  0  0
    0.7713  -10.6304   27.5526 C   0  0  0  0  0  0  0  0  0  0  0  0
    0.8187  -10.8877   29.0795 C   0  0  0  0  0  0  0  0  0  0  0  0
    0.7777   -9.5108   29.7312 C   0  0  0  0  0  0  0  0  0  0  0  0
   -0.0131   -8.6722   28.7425 C   0  0  0  0  0  0  0  0  0  0  0  0
    0.5448   -9.1194   27.4013 C   0  0  0  0  0  0  0  0  0  0  0  0
   -2.5234  -11.4151   23.7067 H   0  0  0  0  0  0  0  0  0  0  0  0
   -1.5402  -12.9405   23.0417 H   0  0  0  0  0  0  0  0  0  0  0  0
   -2.4348  -13.2356   26.9893 H   0  0  0  0  0  0  0  0  0  0  0  0
   -4.5744  -14.9314   27.1702 H   0  0  0  0  0  0  0  0  0  0  0  0
   -4.3788  -13.8344   23.2977 H   0  0  0  0  0  0  0  0  0  0  0  0
    3.9153  -12.4763   24.6795 H   0  0  0  0  0  0  0  0  0  0  0  0
    5.0533  -11.5197   26.9373 H   0  0  0  0  0  0  0  0  0  0  0  0
   -0.0373  -11.2532   27.1969 H   0  0  0  0  0  0  0  0  0  0  0  0
   -0.0829  -11.4415   29.3729 H   0  0  0  0  0  0  0  0  0  0  0  0
    1.6758  -11.4762   29.4202 H   0  0  0  0  0  0  0  0  0  0  0  0
    0.3148   -9.5346   30.7218 H   0  0  0  0  0  0  0  0  0  0  0  0
    1.7944   -9.1143   29.8374 H   0  0  0  0  0  0  0  0  0  0  0  0
   -1.0820   -8.9063   28.8088 H   0  0  0  0  0  0  0  0  0  0  0  0
    0.1168   -7.5993   28.9096 H   0  0  0  0  0  0  0  0  0  0  0  0
   -0.1178   -8.8637   26.5728 H   0  0  0  0  0  0  0  0  0  0  0  0
    1.4904   -8.5935   27.2157 H   0  0  0  0  0  0  0  0  0  0  0  0
  1  2  2  0
  2  3  1  0
  3  4  1  0
  4  5  1  0
  5  6  2  0
  6  7  1  0
  7  8  2  0
  8  9  1  0
  2 10  1  0
 10 11  2  0
 11 12  1  0
 12 13  2  0
 13 14  1  0
 14 15  1  0
 15 16  1  0
 16 17  1  0
 17 18  1  0
 18 19  1  0
  9  5  1  0
 14 10  1  0
 19 15  1  0
  4 20  1  0
  4 21  1  0
  6 22  1  0
  7 23  1  0
  9 24  1  0
 11 25  1  0
 12 26  1  0
 15 27  1  0
 16 28  1  0
 16 29  1  0
 17 30  1  0
 17 31  1  0
 18 32  1  0
 18 33  1  0
 19 34  1  0
 19 35  1  0
M  END
>  <Energy>  (798) 
159.26577368592103

>  <compound_id>  (798) 
13497

>  <target_id>  (798) 
1

>  <reference_id>  (798) 
96

>  <inspiration_ids>  (798) 
[96, 122]

>  <energy_score>  (798) 
133.72623076141303

>  <distance_score>  (798) 
14.943143582026137

>  <path>  (798) 
/opt/xchem-fragalysis-2/maxwin/BulkDock/SCRATCH/511016/C13497-P96/C13497-P96.minimised.mol

>  <scratch_subdir>  (798) 
/opt/xchem-fragalysis-2/maxwin/BulkDock/SCRATCH/511016/C13497-P96

>  <fragmenstein_runtime>  (798) 
14.245065212249756

>  <fragmenstein_outcome>  (798) 
too moved

>  <fragmenstein_mode>  (798) 
expansion

>  <fragmenstein_error>  (798) 


$$$$
C13497-P122
     RDKit          3D

 35 37  0  0  0  0  0  0  0  0999 V2000
   -2.0738  -12.4397   18.5560 O   0  0  0  0  0  0  0  0  0  0  0  0
   -2.1070  -12.3873   19.7939 C   0  0  0  0  0  0  0  0  0  0  0  0
   -2.0368  -13.8808   20.6005 O   0  0  0  0  0  0  0  0  0  0  0  0
   -1.9777  -15.5482   19.8857 C   0  0  0  0  0  0  0  0  0  0  0  0
   -2.9184  -16.8915   20.0802 C   0  0  0  0  0  0  0  0  0  0  0  0
   -3.8735  -17.4455   20.9641 C   0  0  0  0  0  0  0  0  0  0  0  0
   -4.1294  -18.7630   20.5630 C   0  0  0  0  0  0  0  0  0  0  0  0
   -3.3896  -19.0846   19.5116 N   0  0  0  0  0  0  0  0  0  0  0  0
   -2.6975  -17.9621   19.2308 N   0  0  0  0  0  0  0  0  0  0  0  0
   -2.1336  -10.9972   20.4098 C   0  0  0  0  0  0  0  0  0  0  0  0
   -1.2276  -10.3078   21.2424 C   0  0  0  0  0  0  0  0  0  0  0  0
   -1.3461   -8.9277   21.0497 C   0  0  0  0  0  0  0  0  0  0  0  0
   -2.3402   -8.6657   20.2315 N   0  0  0  0  0  0  0  0  0  0  0  0
   -2.8082   -9.8888   19.8388 N   0  0  0  0  0  0  0  0  0  0  0  0
   -4.0403   -9.7753   19.0783 C   0  0  0  0  0  0  0  0  0  0  0  0
   -3.9441   -8.7773   17.9035 C   0  0  0  0  0  0  0  0  0  0  0  0
   -5.1151   -9.1003   16.9733 C   0  0  0  0  0  0  0  0  0  0  0  0
   -5.7824  -10.3369   17.5602 C   0  0  0  0  0  0  0  0  0  0  0  0
   -4.6934  -10.9693   18.4149 C   0  0  0  0  0  0  0  0  0  0  0  0
   -1.7971  -15.3312   18.8375 H   0  0  0  0  0  0  0  0  0  0  0  0
   -1.0702  -16.0213   20.2683 H   0  0  0  0  0  0  0  0  0  0  0  0
   -4.3495  -16.9505   21.7997 H   0  0  0  0  0  0  0  0  0  0  0  0
   -4.8073  -19.4936   20.9855 H   0  0  0  0  0  0  0  0  0  0  0  0
   -2.0568  -17.9965   18.4456 H   0  0  0  0  0  0  0  0  0  0  0  0
   -0.4041  -10.6705   21.8224 H   0  0  0  0  0  0  0  0  0  0  0  0
   -0.7481   -8.1250   21.4597 H   0  0  0  0  0  0  0  0  0  0  0  0
   -4.7648   -9.3720   19.8034 H   0  0  0  0  0  0  0  0  0  0  0  0
   -3.9930   -7.7383   18.2478 H   0  0  0  0  0  0  0  0  0  0  0  0
   -2.9968   -8.8969   17.3628 H   0  0  0  0  0  0  0  0  0  0  0  0
   -5.8211   -8.2665   16.9031 H   0  0  0  0  0  0  0  0  0  0  0  0
   -4.7432   -9.3034   15.9626 H   0  0  0  0  0  0  0  0  0  0  0  0
   -6.6325  -10.0432   18.1874 H   0  0  0  0  0  0  0  0  0  0  0  0
   -6.1526  -11.0160   16.7867 H   0  0  0  0  0  0  0  0  0  0  0  0
   -5.1087  -11.6661   19.1422 H   0  0  0  0  0  0  0  0  0  0  0  0
   -3.9988  -11.4780   17.7451 H   0  0  0  0  0  0  0  0  0  0  0  0
  1  2  2  0
  2  3  1  0
  3  4  1  0
  4  5  1  0
  5  6  2  0
  6  7  1  0
  7  8  2  0
  8  9  1  0
  2 10  1  0
 10 11  2  0
 11 12  1  0
 12 13  2  0
 13 14  1  0
 14 15  1  0
 15 16  1  0
 16 17  1  0
 17 18  1  0
 18 19  1  0
  9  5  1  0
 14 10  1  0
 19 15  1  0
  4 20  1  0
  4 21  1  0
  6 22  1  0
  7 23  1  0
  9 24  1  0
 11 25  1  0
 12 26  1  0
 15 27  1  0
 16 28  1  0
 16 29  1  0
 17 30  1  0
 17 31  1  0
 18 32  1  0
 18 33  1  0
 19 34  1  0
 19 35  1  0
M  END
>  <Energy>  (799) 
140.70523029818455

>  <compound_id>  (799) 
13497

>  <target_id>  (799) 
1

>  <reference_id>  (799) 
122

>  <inspiration_ids>  (799) 
[96, 122]

>  <energy_score>  (799) 
115.1656873736809

>  <distance_score>  (799) 
15.11371992762259

>  <path>  (799) 
/opt/xchem-fragalysis-2/maxwin/BulkDock/SCRATCH/511016/C13497-P122/C13497-P122.minimised.mol

>  <scratch_subdir>  (799) 
/opt/xchem-fragalysis-2/maxwin/BulkDock/SCRATCH/511016/C13497-P122

>  <fragmenstein_runtime>  (799) 
19.207615852355957

>  <fragmenstein_outcome>  (799) 
too moved

>  <fragmenstein_mode>  (799) 
expansion

>  <fragmenstein_error>  (799) 


$$$$
C13498-P96
     RDKit          3D

 37 39  0  0  0  0  0  0  0  0999 V2000
    0.4607  -15.8334   13.1474 O   0  0  0  0  0  0  0  0  0  0  0  0
    1.3894  -16.5361   13.4301 C   0  0  0  0  0  0  0  0  0  0  0  0
    1.4360  -17.8096   14.1385 N   0  0  0  0  0  0  0  0  0  0  0  0
    0.4147  -18.5499   14.7848 N   0  0  0  0  0  0  0  0  0  0  0  0
   -1.0359  -18.5185   14.6245 C   0  0  0  0  0  0  0  0  0  0  0  0
   -1.7220  -17.9161   13.8502 O   0  0  0  0  0  0  0  0  0  0  0  0
   -1.7645  -19.3064   15.6528 C   0  0  0  0  0  0  0  0  0  0  0  0
   -1.5784  -20.5410   16.2614 C   0  0  0  0  0  0  0  0  0  0  0  0
   -2.6520  -20.7032   17.1749 C   0  0  0  0  0  0  0  0  0  0  0  0
   -3.4886  -19.6665   17.1503 N   0  0  0  0  0  0  0  0  0  0  0  0
   -2.9700  -18.8751   16.1848 N   0  0  0  0  0  0  0  0  0  0  0  0
    2.7818  -16.0024   13.0704 C   0  0  0  0  0  0  0  0  0  0  0  0
    3.0493  -14.6847   12.5634 C   0  0  0  0  0  0  0  0  0  0  0  0
    4.4102  -14.5660   12.4372 C   0  0  0  0  0  0  0  0  0  0  0  0
    4.9014  -15.8031   12.7300 N   0  0  0  0  0  0  0  0  0  0  0  0
    6.2336  -16.2669   12.3547 C   0  0  0  0  0  0  0  0  0  0  0  0
    6.1868  -17.3082   11.2187 C   0  0  0  0  0  0  0  0  0  0  0  0
    6.9894  -18.5075   11.7149 C   0  0  0  0  0  0  0  0  0  0  0  0
    6.9065  -18.4177   13.2287 C   0  0  0  0  0  0  0  0  0  0  0  0
    7.0305  -16.9238   13.4856 C   0  0  0  0  0  0  0  0  0  0  0  0
    3.9584  -16.6658   13.2243 N   0  0  0  0  0  0  0  0  0  0  0  0
    2.3911  -18.1631   14.1252 H   0  0  0  0  0  0  0  0  0  0  0  0
    0.6474  -19.1093   15.6019 H   0  0  0  0  0  0  0  0  0  0  0  0
   -0.7686  -21.2347   16.0848 H   0  0  0  0  0  0  0  0  0  0  0  0
   -2.8454  -21.5280   17.8489 H   0  0  0  0  0  0  0  0  0  0  0  0
   -3.4662  -18.0279   15.9266 H   0  0  0  0  0  0  0  0  0  0  0  0
    2.3076  -13.9289   12.3440 H   0  0  0  0  0  0  0  0  0  0  0  0
    5.0323  -13.7543   12.0865 H   0  0  0  0  0  0  0  0  0  0  0  0
    6.7792  -15.3771   12.0148 H   0  0  0  0  0  0  0  0  0  0  0  0
    6.6228  -16.9086   10.2965 H   0  0  0  0  0  0  0  0  0  0  0  0
    5.1623  -17.6167   10.9796 H   0  0  0  0  0  0  0  0  0  0  0  0
    6.5987  -19.4545   11.3314 H   0  0  0  0  0  0  0  0  0  0  0  0
    8.0329  -18.4168   11.3899 H   0  0  0  0  0  0  0  0  0  0  0  0
    5.9399  -18.7950   13.5801 H   0  0  0  0  0  0  0  0  0  0  0  0
    7.6975  -18.9899   13.7218 H   0  0  0  0  0  0  0  0  0  0  0  0
    8.0861  -16.6361   13.3949 H   0  0  0  0  0  0  0  0  0  0  0  0
    6.7065  -16.6376   14.4860 H   0  0  0  0  0  0  0  0  0  0  0  0
  1  2  2  0
  2  3  1  0
  3  4  1  0
  4  5  1  0
  5  6  2  0
  5  7  1  0
  7  8  2  0
  8  9  1  0
  9 10  2  0
 10 11  1  0
  2 12  1  0
 12 13  1  0
 13 14  2  0
 14 15  1  0
 15 16  1  0
 16 17  1  0
 17 18  1  0
 18 19  1  0
 19 20  1  0
 15 21  1  0
 11  7  1  0
 21 12  2  0
 20 16  1  0
  3 22  1  0
  4 23  1  0
  8 24  1  0
  9 25  1  0
 11 26  1  0
 13 27  1  0
 14 28  1  0
 16 29  1  0
 17 30  1  0
 17 31  1  0
 18 32  1  0
 18 33  1  0
 19 34  1  0
 19 35  1  0
 20 36  1  0
 20 37  1  0
M  END
>  <Energy>  (800) 
98.236398009278048

>  <compound_id>  (800) 
13498

>  <target_id>  (800) 
1

>  <reference_id>  (800) 
96

>  <inspiration_ids>  (800) 
[96, 122]

>  <energy_score>  (800) 
-12.30410302624864

>  <distance_score>  (800) 
15.958037137102808

>  <path>  (800) 
/opt/xchem-fragalysis-2/maxwin/BulkDock/SCRATCH/511016/C13498-P96/C13498-P96.minimised.mol

>  <scratch_subdir>  (800) 
/opt/xchem-fragalysis-2/maxwin/BulkDock/SCRATCH/511016/C13498-P96

>  <fragmenstein_runtime>  (800) 
23.289186000823975

>  <fragmenstein_outcome>  (800) 
too moved

>  <fragmenstein_mode>  (800) 
expansion

>  <fragmenstein_error>  (800) 


$$$$
C13498-P122
     RDKit          3D

 37 39  0  0  0  0  0  0  0  0999 V2000
    1.8064   -9.2454   17.7156 O   0  0  0  0  0  0  0  0  0  0  0  0
    2.8793   -9.7471   17.4444 C   0  0  0  0  0  0  0  0  0  0  0  0
    2.9194  -11.6497   16.9322 N   0  0  0  0  0  0  0  0  0  0  0  0
    1.3834  -13.0457   16.5617 N   0  0  0  0  0  0  0  0  0  0  0  0
   -0.3729  -13.1821   17.2726 C   0  0  0  0  0  0  0  0  0  0  0  0
   -0.9110  -12.5457   18.1717 O   0  0  0  0  0  0  0  0  0  0  0  0
   -1.5903  -14.2407   16.4636 C   0  0  0  0  0  0  0  0  0  0  0  0
   -2.1557  -14.1441   15.0908 C   0  0  0  0  0  0  0  0  0  0  0  0
   -3.4711  -14.6045   14.9940 C   0  0  0  0  0  0  0  0  0  0  0  0
   -3.8172  -15.0398   16.1727 N   0  0  0  0  0  0  0  0  0  0  0  0
   -2.6114  -14.9931   16.8261 N   0  0  0  0  0  0  0  0  0  0  0  0
    4.2274   -8.3504   17.3983 C   0  0  0  0  0  0  0  0  0  0  0  0
    3.8736   -7.2228   16.3010 C   0  0  0  0  0  0  0  0  0  0  0  0
    4.9195   -6.3590   15.7923 C   0  0  0  0  0  0  0  0  0  0  0  0
    6.2965   -6.6861   16.2298 N   0  0  0  0  0  0  0  0  0  0  0  0
    8.0387   -6.3482   15.4256 C   0  0  0  0  0  0  0  0  0  0  0  0
   10.1349   -7.0284   15.4160 C   0  0  0  0  0  0  0  0  0  0  0  0
   11.1983   -5.2905   15.9027 C   0  0  0  0  0  0  0  0  0  0  0  0
   10.4857   -4.0500   15.1807 C   0  0  0  0  0  0  0  0  0  0  0  0
    8.7069   -4.3872   15.2083 C   0  0  0  0  0  0  0  0  0  0  0  0
    5.5245   -7.4020   17.6655 N   0  0  0  0  0  0  0  0  0  0  0  0
    3.8517  -11.9320   16.8268 H   0  0  0  0  0  0  0  0  0  0  0  0
    1.5028  -13.6627   15.7589 H   0  0  0  0  0  0  0  0  0  0  0  0
   -1.6651  -13.7065   14.2262 H   0  0  0  0  0  0  0  0  0  0  0  0
   -4.1597  -14.6147   14.1613 H   0  0  0  0  0  0  0  0  0  0  0  0
   -2.4254  -15.8285   17.3667 H   0  0  0  0  0  0  0  0  0  0  0  0
    2.8536   -7.1676   15.9384 H   0  0  0  0  0  0  0  0  0  0  0  0
    4.7398   -5.4555   15.2484 H   0  0  0  0  0  0  0  0  0  0  0  0
    8.0071   -7.1046   14.6512 H   0  0  0  0  0  0  0  0  0  0  0  0
   10.7862   -6.7442   14.6411 H   0  0  0  0  0  0  0  0  0  0  0  0
   10.9000   -6.8490   16.2209 H   0  0  0  0  0  0  0  0  0  0  0  0
   11.0764   -5.0142   16.9657 H   0  0  0  0  0  0  0  0  0  0  0  0
   12.2976   -5.3776   15.9566 H   0  0  0  0  0  0  0  0  0  0  0  0
   10.6945   -3.1203   15.7190 H   0  0  0  0  0  0  0  0  0  0  0  0
   10.8531   -3.9255   14.1596 H   0  0  0  0  0  0  0  0  0  0  0  0
    8.8645   -5.0140   14.3919 H   0  0  0  0  0  0  0  0  0  0  0  0
    8.1383   -3.4580   14.9685 H   0  0  0  0  0  0  0  0  0  0  0  0
  1  2  2  0
  2  3  1  0
  3  4  1  0
  4  5  1  0
  5  6  2  0
  5  7  1  0
  7  8  2  0
  8  9  1  0
  9 10  2  0
 10 11  1  0
  2 12  1  0
 12 13  1  0
 13 14  2  0
 14 15  1  0
 15 16  1  0
 16 17  1  0
 17 18  1  0
 18 19  1  0
 19 20  1  0
 15 21  1  0
 11  7  1  0
 21 12  2  0
 20 16  1  0
  3 22  1  0
  4 23  1  0
  8 24  1  0
  9 25  1  0
 11 26  1  0
 13 27  1  0
 14 28  1  0
 16 29  1  0
 17 30  1  0
 17 31  1  0
 18 32  1  0
 18 33  1  0
 19 34  1  0
 19 35  1  0
 20 36  1  0
 20 37  1  0
M  END
>  <Energy>  (801) 
1320.8453714541997

>  <compound_id>  (801) 
13498

>  <target_id>  (801) 
1

>  <reference_id>  (801) 
122

>  <inspiration_ids>  (801) 
[96, 122]

>  <energy_score>  (801) 
1210.3048704186608

>  <distance_score>  (801) 
14.945983478426623

>  <path>  (801) 
/opt/xchem-fragalysis-2/maxwin/BulkDock/SCRATCH/511016/C13498-P122/C13498-P122.minimised.mol

>  <scratch_subdir>  (801) 
/opt/xchem-fragalysis-2/maxwin/BulkDock/SCRATCH/511016/C13498-P122

>  <fragmenstein_runtime>  (801) 
32.74764823913574

>  <fragmenstein_outcome>  (801) 
too moved

>  <fragmenstein_mode>  (801) 
expansion

>  <fragmenstein_error>  (801) 


$$$$
C13499-P96
     RDKit          3D

 43 45  0  0  0  0  0  0  0  0999 V2000
    1.8433  -13.9208   16.7242 C   0  0  0  0  0  0  0  0  0  0  0  0
    1.6099  -13.4381   18.1158 C   0  0  0  0  0  0  0  0  0  0  0  0
    0.4251  -14.5860   19.1456 N   0  0  0  0  0  0  0  0  0  0  0  0
   -0.9430  -15.7541   19.1023 C   0  0  0  0  0  0  0  0  0  0  0  0
   -2.6454  -16.1472   18.7205 C   0  0  0  0  0  0  0  0  0  0  0  0
   -3.3209  -17.5318   18.5501 C   0  0  0  0  0  0  0  0  0  0  0  0
   -2.9200  -18.7730   18.0131 C   0  0  0  0  0  0  0  0  0  0  0  0
   -3.9698  -19.6520   18.1782 C   0  0  0  0  0  0  0  0  0  0  0  0
   -5.0078  -18.8884   18.6023 N   0  0  0  0  0  0  0  0  0  0  0  0
   -6.3840  -19.3136   18.7585 C   0  0  0  0  0  0  0  0  0  0  0  0
   -7.3141  -18.8104   17.6396 C   0  0  0  0  0  0  0  0  0  0  0  0
   -8.5510  -18.2502   18.3401 C   0  0  0  0  0  0  0  0  0  0  0  0
   -8.5307  -18.8733   19.7265 C   0  0  0  0  0  0  0  0  0  0  0  0
   -7.0503  -18.8793   20.0696 C   0  0  0  0  0  0  0  0  0  0  0  0
   -4.6636  -17.5929   18.7094 N   0  0  0  0  0  0  0  0  0  0  0  0
    2.9853  -11.9766   18.0644 C   0  0  0  0  0  0  0  0  0  0  0  0
    3.5577  -11.0252   18.8452 C   0  0  0  0  0  0  0  0  0  0  0  0
    4.8171  -10.6382   18.3160 C   0  0  0  0  0  0  0  0  0  0  0  0
    4.8560  -10.9888   17.0616 N   0  0  0  0  0  0  0  0  0  0  0  0
    3.5998  -11.5744   16.9316 N   0  0  0  0  0  0  0  0  0  0  0  0
    2.8282  -13.6899   16.3388 H   0  0  0  0  0  0  0  0  0  0  0  0
    1.0275  -13.5144   16.1395 H   0  0  0  0  0  0  0  0  0  0  0  0
    1.8098  -14.9509   16.5299 H   0  0  0  0  0  0  0  0  0  0  0  0
    1.8621  -13.2841   19.1507 H   0  0  0  0  0  0  0  0  0  0  0  0
    0.9173  -15.2343   19.6718 H   0  0  0  0  0  0  0  0  0  0  0  0
   -0.4296  -16.6441   18.7734 H   0  0  0  0  0  0  0  0  0  0  0  0
   -1.2724  -15.0088   18.4282 H   0  0  0  0  0  0  0  0  0  0  0  0
   -2.8270  -15.6833   17.7520 H   0  0  0  0  0  0  0  0  0  0  0  0
   -3.3215  -15.5395   19.3038 H   0  0  0  0  0  0  0  0  0  0  0  0
   -2.0018  -19.0191   17.5155 H   0  0  0  0  0  0  0  0  0  0  0  0
   -4.0796  -20.6982   17.9297 H   0  0  0  0  0  0  0  0  0  0  0  0
   -6.3755  -20.4120   18.7283 H   0  0  0  0  0  0  0  0  0  0  0  0
   -7.5970  -19.6510   16.9944 H   0  0  0  0  0  0  0  0  0  0  0  0
   -6.8569  -18.0515   16.9953 H   0  0  0  0  0  0  0  0  0  0  0  0
   -8.4656  -17.1597   18.4206 H   0  0  0  0  0  0  0  0  0  0  0  0
   -9.4729  -18.4751   17.7959 H   0  0  0  0  0  0  0  0  0  0  0  0
   -8.9196  -19.8977   19.6914 H   0  0  0  0  0  0  0  0  0  0  0  0
   -9.1233  -18.3034   20.4478 H   0  0  0  0  0  0  0  0  0  0  0  0
   -6.7472  -17.8705   20.3710 H   0  0  0  0  0  0  0  0  0  0  0  0
   -6.8183  -19.5592   20.8954 H   0  0  0  0  0  0  0  0  0  0  0  0
    3.0214  -10.7051   19.7320 H   0  0  0  0  0  0  0  0  0  0  0  0
    5.6200  -10.0409   18.7241 H   0  0  0  0  0  0  0  0  0  0  0  0
    3.1030  -11.4848   16.0502 H   0  0  0  0  0  0  0  0  0  0  0  0
  1  2  1  0
  2  3  1  0
  3  4  1  0
  4  5  1  0
  5  6  1  0
  6  7  1  0
  7  8  2  0
  8  9  1  0
  9 10  1  0
 10 11  1  0
 11 12  1  0
 12 13  1  0
 13 14  1  0
  9 15  1  0
  2 16  1  0
 16 17  2  0
 17 18  1  0
 18 19  2  0
 19 20  1  0
 15  6  2  0
 20 16  1  0
 14 10  1  0
  1 21  1  0
  1 22  1  0
  1 23  1  0
  2 24  1  0
  3 25  1  0
  4 26  1  0
  4 27  1  0
  5 28  1  0
  5 29  1  0
  7 30  1  0
  8 31  1  0
 10 32  1  0
 11 33  1  0
 11 34  1  0
 12 35  1  0
 12 36  1  0
 13 37  1  0
 13 38  1  0
 14 39  1  0
 14 40  1  0
 17 41  1  0
 18 42  1  0
 20 43  1  0
M  END
>  <Energy>  (802) 
430.97005248977234

>  <compound_id>  (802) 
13499

>  <target_id>  (802) 
1

>  <reference_id>  (802) 
96

>  <inspiration_ids>  (802) 
[96, 122]

>  <energy_score>  (802) 
382.03706881810666

>  <distance_score>  (802) 
13.476070305351149

>  <path>  (802) 
/opt/xchem-fragalysis-2/maxwin/BulkDock/SCRATCH/511016/C13499-P96/C13499-P96.minimised.mol

>  <scratch_subdir>  (802) 
/opt/xchem-fragalysis-2/maxwin/BulkDock/SCRATCH/511016/C13499-P96

>  <fragmenstein_runtime>  (802) 
16.27773952484131

>  <fragmenstein_outcome>  (802) 
too moved

>  <fragmenstein_mode>  (802) 
expansion

>  <fragmenstein_error>  (802) 


$$$$
C13499-P122
     RDKit          3D

 43 45  0  0  0  0  0  0  0  0999 V2000
    4.9807  -12.8832   26.7191 C   0  0  0  0  0  0  0  0  0  0  0  0
    4.0521  -12.0233   25.8501 C   0  0  0  0  0  0  0  0  0  0  0  0
    2.7684  -11.7716   26.5527 N   0  0  0  0  0  0  0  0  0  0  0  0
    1.9574  -12.9132   27.1603 C   0  0  0  0  0  0  0  0  0  0  0  0
    1.5292  -14.2637   26.4496 C   0  0  0  0  0  0  0  0  0  0  0  0
    0.2943  -14.9858   27.0148 C   0  0  0  0  0  0  0  0  0  0  0  0
   -1.0840  -14.6630   26.8625 C   0  0  0  0  0  0  0  0  0  0  0  0
   -1.7868  -15.6865   27.4588 C   0  0  0  0  0  0  0  0  0  0  0  0
   -0.8436  -16.5506   27.9256 N   0  0  0  0  0  0  0  0  0  0  0  0
   -1.0865  -17.8006   28.6178 C   0  0  0  0  0  0  0  0  0  0  0  0
   -0.2646  -17.9798   29.9063 C   0  0  0  0  0  0  0  0  0  0  0  0
    0.6781  -19.1420   29.6206 C   0  0  0  0  0  0  0  0  0  0  0  0
   -0.1251  -20.0255   28.6816 C   0  0  0  0  0  0  0  0  0  0  0  0
   -0.7841  -19.0268   27.7417 C   0  0  0  0  0  0  0  0  0  0  0  0
    0.4198  -16.1625   27.6538 N   0  0  0  0  0  0  0  0  0  0  0  0
    4.7991  -10.7413   25.4316 C   0  0  0  0  0  0  0  0  0  0  0  0
    5.5400   -9.7897   26.1177 C   0  0  0  0  0  0  0  0  0  0  0  0
    6.1039   -8.9442   25.1365 C   0  0  0  0  0  0  0  0  0  0  0  0
    5.7410   -9.3020   23.9075 N   0  0  0  0  0  0  0  0  0  0  0  0
    4.9531  -10.3769   24.1132 N   0  0  0  0  0  0  0  0  0  0  0  0
    5.1494  -12.4244   27.7007 H   0  0  0  0  0  0  0  0  0  0  0  0
    5.9628  -13.0110   26.2500 H   0  0  0  0  0  0  0  0  0  0  0  0
    4.5658  -13.8827   26.8820 H   0  0  0  0  0  0  0  0  0  0  0  0
    3.7786  -12.5740   24.9469 H   0  0  0  0  0  0  0  0  0  0  0  0
    2.9703  -11.1315   27.3228 H   0  0  0  0  0  0  0  0  0  0  0  0
    1.0268  -12.4239   27.4761 H   0  0  0  0  0  0  0  0  0  0  0  0
    2.4607  -13.1937   28.0950 H   0  0  0  0  0  0  0  0  0  0  0  0
    2.3859  -14.9483   26.5085 H   0  0  0  0  0  0  0  0  0  0  0  0
    1.3839  -14.0991   25.3821 H   0  0  0  0  0  0  0  0  0  0  0  0
   -1.4981  -13.7999   26.3611 H   0  0  0  0  0  0  0  0  0  0  0  0
   -2.8467  -15.8594   27.5793 H   0  0  0  0  0  0  0  0  0  0  0  0
   -2.1471  -17.7904   28.8825 H   0  0  0  0  0  0  0  0  0  0  0  0
   -0.9373  -18.2597   30.7265 H   0  0  0  0  0  0  0  0  0  0  0  0
    0.2769  -17.0832   30.2239 H   0  0  0  0  0  0  0  0  0  0  0  0
    1.5837  -18.7800   29.1199 H   0  0  0  0  0  0  0  0  0  0  0  0
    0.9770  -19.6666   30.5325 H   0  0  0  0  0  0  0  0  0  0  0  0
    0.5013  -20.7462   28.1484 H   0  0  0  0  0  0  0  0  0  0  0  0
   -0.8885  -20.5800   29.2403 H   0  0  0  0  0  0  0  0  0  0  0  0
   -0.0967  -18.7819   26.9226 H   0  0  0  0  0  0  0  0  0  0  0  0
   -1.6924  -19.4377   27.2890 H   0  0  0  0  0  0  0  0  0  0  0  0
    5.6908   -9.7407   27.1869 H   0  0  0  0  0  0  0  0  0  0  0  0
    6.7606   -8.0945   25.2716 H   0  0  0  0  0  0  0  0  0  0  0  0
    4.5221  -10.8203   23.3106 H   0  0  0  0  0  0  0  0  0  0  0  0
  1  2  1  0
  2  3  1  0
  3  4  1  0
  4  5  1  0
  5  6  1  0
  6  7  1  0
  7  8  2  0
  8  9  1  0
  9 10  1  0
 10 11  1  0
 11 12  1  0
 12 13  1  0
 13 14  1  0
  9 15  1  0
  2 16  1  0
 16 17  2  0
 17 18  1  0
 18 19  2  0
 19 20  1  0
 15  6  2  0
 20 16  1  0
 14 10  1  0
  1 21  1  0
  1 22  1  0
  1 23  1  0
  2 24  1  0
  3 25  1  0
  4 26  1  0
  4 27  1  0
  5 28  1  0
  5 29  1  0
  7 30  1  0
  8 31  1  0
 10 32  1  0
 11 33  1  0
 11 34  1  0
 12 35  1  0
 12 36  1  0
 13 37  1  0
 13 38  1  0
 14 39  1  0
 14 40  1  0
 17 41  1  0
 18 42  1  0
 20 43  1  0
M  END
>  <Energy>  (803) 
30.50365808749271

>  <compound_id>  (803) 
13499

>  <target_id>  (803) 
1

>  <reference_id>  (803) 
122

>  <inspiration_ids>  (803) 
[96, 122]

>  <energy_score>  (803) 
-18.42932558417607

>  <distance_score>  (803) 
13.708534427875247

>  <path>  (803) 
/opt/xchem-fragalysis-2/maxwin/BulkDock/SCRATCH/511016/C13499-P122/C13499-P122.minimised.mol

>  <scratch_subdir>  (803) 
/opt/xchem-fragalysis-2/maxwin/BulkDock/SCRATCH/511016/C13499-P122

>  <fragmenstein_runtime>  (803) 
27.128958463668823

>  <fragmenstein_outcome>  (803) 
too moved

>  <fragmenstein_mode>  (803) 
expansion

>  <fragmenstein_error>  (803) 


$$$$
C13500-P96
     RDKit          3D

 42 44  0  0  0  0  0  0  0  0999 V2000
    9.6932  -10.5330   14.3272 O   0  0  0  0  0  0  0  0  0  0  0  0
    9.1605  -10.0455   13.3382 C   0  0  0  0  0  0  0  0  0  0  0  0
    8.3964  -10.8113   12.4484 O   0  0  0  0  0  0  0  0  0  0  0  0
    8.1636  -12.2349   12.7218 C   0  0  0  0  0  0  0  0  0  0  0  0
    6.9953  -12.7776   11.8406 C   0  0  0  0  0  0  0  0  0  0  0  0
    6.2858  -14.0283   12.2078 N   0  0  0  0  0  0  0  0  0  0  0  0
    5.0591  -14.6124   11.6914 C   0  0  0  0  0  0  0  0  0  0  0  0
    4.3571  -14.2714   10.7875 O   0  0  0  0  0  0  0  0  0  0  0  0
    4.5571  -15.8082   12.4281 C   0  0  0  0  0  0  0  0  0  0  0  0
    3.2304  -16.2521   12.5582 C   0  0  0  0  0  0  0  0  0  0  0  0
    3.2609  -17.4514   13.2889 C   0  0  0  0  0  0  0  0  0  0  0  0
    4.5167  -17.7815   13.5981 N   0  0  0  0  0  0  0  0  0  0  0  0
    5.2654  -16.8111   13.0300 N   0  0  0  0  0  0  0  0  0  0  0  0
    9.1455   -8.5851   12.9880 C   0  0  0  0  0  0  0  0  0  0  0  0
    7.9818   -8.0142   12.2735 C   0  0  0  0  0  0  0  0  0  0  0  0
    8.0599   -6.4771   12.1118 C   0  0  0  0  0  0  0  0  0  0  0  0
    9.6739   -5.8039   12.6057 N   0  0  0  0  0  0  0  0  0  0  0  0
    9.9291   -4.0957   12.7886 C   0  0  0  0  0  0  0  0  0  0  0  0
   10.9031   -3.1856   13.6511 C   0  0  0  0  0  0  0  0  0  0  0  0
   11.6068   -2.2691   12.6776 C   0  0  0  0  0  0  0  0  0  0  0  0
   10.4608   -1.7431   11.8223 C   0  0  0  0  0  0  0  0  0  0  0  0
    9.3702   -2.8324   11.8205 C   0  0  0  0  0  0  0  0  0  0  0  0
   10.2056   -7.5636   13.1910 N   0  0  0  0  0  0  0  0  0  0  0  0
    7.9251  -12.3639   13.7725 H   0  0  0  0  0  0  0  0  0  0  0  0
    9.0841  -12.7837   12.4984 H   0  0  0  0  0  0  0  0  0  0  0  0
    7.3581  -12.9168   10.8154 H   0  0  0  0  0  0  0  0  0  0  0  0
    6.2186  -12.0066   11.7650 H   0  0  0  0  0  0  0  0  0  0  0  0
    6.6579  -14.6273   12.9308 H   0  0  0  0  0  0  0  0  0  0  0  0
    2.3567  -15.7642   12.1444 H   0  0  0  0  0  0  0  0  0  0  0  0
    2.4411  -18.0902   13.5973 H   0  0  0  0  0  0  0  0  0  0  0  0
    6.2731  -16.9237   13.0534 H   0  0  0  0  0  0  0  0  0  0  0  0
    7.1956   -8.6143   11.8215 H   0  0  0  0  0  0  0  0  0  0  0  0
    7.5424   -5.8529   11.3705 H   0  0  0  0  0  0  0  0  0  0  0  0
    9.0658   -3.9760   13.3980 H   0  0  0  0  0  0  0  0  0  0  0  0
   11.4866   -3.5215   14.4929 H   0  0  0  0  0  0  0  0  0  0  0  0
   10.2501   -2.5009   14.2119 H   0  0  0  0  0  0  0  0  0  0  0  0
   12.1182   -1.4469   13.1884 H   0  0  0  0  0  0  0  0  0  0  0  0
   12.3541   -2.8141   12.0983 H   0  0  0  0  0  0  0  0  0  0  0  0
   10.7800   -1.4542   10.8187 H   0  0  0  0  0  0  0  0  0  0  0  0
   10.0523   -0.8312   12.2778 H   0  0  0  0  0  0  0  0  0  0  0  0
    8.9640   -3.0272   10.8217 H   0  0  0  0  0  0  0  0  0  0  0  0
    8.5224   -2.3699   12.3275 H   0  0  0  0  0  0  0  0  0  0  0  0
  1  2  2  0
  2  3  1  0
  3  4  1  0
  4  5  1  0
  5  6  1  0
  6  7  1  0
  7  8  2  0
  7  9  1  0
  9 10  2  0
 10 11  1  0
 11 12  2  0
 12 13  1  0
  2 14  1  0
 14 15  1  0
 15 16  2  0
 16 17  1  0
 17 18  1  0
 18 19  1  0
 19 20  1  0
 20 21  1  0
 21 22  1  0
 17 23  1  0
 13  9  1  0
 23 14  2  0
 22 18  1  0
  4 24  1  0
  4 25  1  0
  5 26  1  0
  5 27  1  0
  6 28  1  0
 10 29  1  0
 11 30  1  0
 13 31  1  0
 15 32  1  0
 16 33  1  0
 18 34  1  0
 19 35  1  0
 19 36  1  0
 20 37  1  0
 20 38  1  0
 21 39  1  0
 21 40  1  0
 22 41  1  0
 22 42  1  0
M  END
>  <Energy>  (804) 
337.73521112739803

>  <compound_id>  (804) 
13500

>  <target_id>  (804) 
1

>  <reference_id>  (804) 
96

>  <inspiration_ids>  (804) 
[96, 122]

>  <energy_score>  (804) 
277.91882148681907

>  <distance_score>  (804) 
17.573111413965673

>  <path>  (804) 
/opt/xchem-fragalysis-2/maxwin/BulkDock/SCRATCH/511016/C13500-P96/C13500-P96.minimised.mol

>  <scratch_subdir>  (804) 
/opt/xchem-fragalysis-2/maxwin/BulkDock/SCRATCH/511016/C13500-P96

>  <fragmenstein_runtime>  (804) 
22.456565618515015

>  <fragmenstein_outcome>  (804) 
too moved

>  <fragmenstein_mode>  (804) 
expansion

>  <fragmenstein_error>  (804) 


$$$$
C13500-P122
     RDKit          3D

 42 44  0  0  0  0  0  0  0  0999 V2000
    1.5173   -6.6748   17.9746 O   0  0  0  0  0  0  0  0  0  0  0  0
    2.4366   -7.3832   18.4171 C   0  0  0  0  0  0  0  0  0  0  0  0
    1.7229   -8.8521   19.3400 O   0  0  0  0  0  0  0  0  0  0  0  0
    0.7945   -9.5697   20.9629 C   0  0  0  0  0  0  0  0  0  0  0  0
    0.2541  -11.1520   22.2879 C   0  0  0  0  0  0  0  0  0  0  0  0
   -0.2214  -13.0917   22.9855 N   0  0  0  0  0  0  0  0  0  0  0  0
   -1.1474  -13.6998   24.6983 C   0  0  0  0  0  0  0  0  0  0  0  0
   -1.4085  -12.8658   25.5279 O   0  0  0  0  0  0  0  0  0  0  0  0
   -1.7370  -14.9495   25.1223 C   0  0  0  0  0  0  0  0  0  0  0  0
   -2.3365  -14.9908   26.6636 C   0  0  0  0  0  0  0  0  0  0  0  0
   -3.1109  -16.1133   26.9198 C   0  0  0  0  0  0  0  0  0  0  0  0
   -3.1741  -16.7192   25.7667 N   0  0  0  0  0  0  0  0  0  0  0  0
   -2.6582  -15.8283   24.8055 N   0  0  0  0  0  0  0  0  0  0  0  0
    4.1979   -6.6659   17.8469 C   0  0  0  0  0  0  0  0  0  0  0  0
    4.4261   -6.2673   16.5308 C   0  0  0  0  0  0  0  0  0  0  0  0
    5.9011   -6.5286   16.1500 C   0  0  0  0  0  0  0  0  0  0  0  0
    6.8086   -5.7716   16.7345 N   0  0  0  0  0  0  0  0  0  0  0  0
    7.9371   -4.3831   15.8458 C   0  0  0  0  0  0  0  0  0  0  0  0
    7.3740   -2.8828   14.8255 C   0  0  0  0  0  0  0  0  0  0  0  0
    8.3768   -1.7257   15.0940 C   0  0  0  0  0  0  0  0  0  0  0  0
    9.8036   -2.2968   15.1688 C   0  0  0  0  0  0  0  0  0  0  0  0
    9.7575   -3.8550   15.2935 C   0  0  0  0  0  0  0  0  0  0  0  0
    5.6769   -5.9262   18.1261 N   0  0  0  0  0  0  0  0  0  0  0  0
   -0.2016   -9.1532   20.7139 H   0  0  0  0  0  0  0  0  0  0  0  0
    1.1409   -8.7817   21.6380 H   0  0  0  0  0  0  0  0  0  0  0  0
   -0.1621  -10.4060   22.9131 H   0  0  0  0  0  0  0  0  0  0  0  0
   -0.7517  -11.0793   21.7349 H   0  0  0  0  0  0  0  0  0  0  0  0
   -0.0029  -13.9175   22.4143 H   0  0  0  0  0  0  0  0  0  0  0  0
   -1.8735  -14.5161   27.5058 H   0  0  0  0  0  0  0  0  0  0  0  0
   -3.5114  -16.5327   27.8323 H   0  0  0  0  0  0  0  0  0  0  0  0
   -3.0217  -15.7267   23.8835 H   0  0  0  0  0  0  0  0  0  0  0  0
    3.6185   -6.3830   15.8061 H   0  0  0  0  0  0  0  0  0  0  0  0
    6.3337   -6.9518   15.2647 H   0  0  0  0  0  0  0  0  0  0  0  0
    7.6274   -3.4967   16.2893 H   0  0  0  0  0  0  0  0  0  0  0  0
    7.5338   -2.9980   13.7753 H   0  0  0  0  0  0  0  0  0  0  0  0
    6.3200   -2.6248   14.9510 H   0  0  0  0  0  0  0  0  0  0  0  0
    8.1342   -1.1955   16.0141 H   0  0  0  0  0  0  0  0  0  0  0  0
    8.2951   -0.9563   14.3242 H   0  0  0  0  0  0  0  0  0  0  0  0
   10.2909   -1.8623   16.0486 H   0  0  0  0  0  0  0  0  0  0  0  0
   10.5155   -1.9987   14.4027 H   0  0  0  0  0  0  0  0  0  0  0  0
   10.5192   -4.0333   16.0911 H   0  0  0  0  0  0  0  0  0  0  0  0
   10.2665   -4.3757   14.4884 H   0  0  0  0  0  0  0  0  0  0  0  0
  1  2  2  0
  2  3  1  0
  3  4  1  0
  4  5  1  0
  5  6  1  0
  6  7  1  0
  7  8  2  0
  7  9  1  0
  9 10  2  0
 10 11  1  0
 11 12  2  0
 12 13  1  0
  2 14  1  0
 14 15  1  0
 15 16  2  0
 16 17  1  0
 17 18  1  0
 18 19  1  0
 19 20  1  0
 20 21  1  0
 21 22  1  0
 17 23  1  0
 13  9  1  0
 23 14  2  0
 22 18  1  0
  4 24  1  0
  4 25  1  0
  5 26  1  0
  5 27  1  0
  6 28  1  0
 10 29  1  0
 11 30  1  0
 13 31  1  0
 15 32  1  0
 16 33  1  0
 18 34  1  0
 19 35  1  0
 19 36  1  0
 20 37  1  0
 20 38  1  0
 21 39  1  0
 21 40  1  0
 22 41  1  0
 22 42  1  0
M  END
>  <Energy>  (805) 
1421.3928088416965

>  <compound_id>  (805) 
13500

>  <target_id>  (805) 
1

>  <reference_id>  (805) 
122

>  <inspiration_ids>  (805) 
[96, 122]

>  <energy_score>  (805) 
1361.5764192011175

>  <distance_score>  (805) 
10.844970311204667

>  <path>  (805) 
/opt/xchem-fragalysis-2/maxwin/BulkDock/SCRATCH/511016/C13500-P122/C13500-P122.minimised.mol

>  <scratch_subdir>  (805) 
/opt/xchem-fragalysis-2/maxwin/BulkDock/SCRATCH/511016/C13500-P122

>  <fragmenstein_runtime>  (805) 
37.980698347091675

>  <fragmenstein_outcome>  (805) 
too moved

>  <fragmenstein_mode>  (805) 
expansion

>  <fragmenstein_error>  (805) 


$$$$
C13501-P96
     RDKit          3D

 39 41  0  0  0  0  0  0  0  0999 V2000
    2.3774  -12.7431   20.8029 O   0  0  0  0  0  0  0  0  0  0  0  0
    2.2262  -12.7847   19.5285 C   0  0  0  0  0  0  0  0  0  0  0  0
    0.7828  -14.1435   19.0499 C   0  0  0  0  0  0  0  0  0  0  0  0
   -0.6720  -15.4653   19.3348 C   0  0  0  0  0  0  0  0  0  0  0  0
   -0.7929  -16.7721   19.8545 C   0  0  0  0  0  0  0  0  0  0  0  0
   -2.0419  -17.3673   19.4957 C   0  0  0  0  0  0  0  0  0  0  0  0
   -2.7592  -16.5553   18.7465 N   0  0  0  0  0  0  0  0  0  0  0  0
   -2.0596  -15.3984   18.8073 N   0  0  0  0  0  0  0  0  0  0  0  0
    3.1187  -11.7707   18.1443 N   0  0  0  0  0  0  0  0  0  0  0  0
    4.6326  -10.4508   18.2230 S   0  0  0  0  0  0  0  0  0  0  0  0
    4.6198  -10.4017   16.7765 O   0  0  0  0  0  0  0  0  0  0  0  0
    5.7887  -11.1314   18.6866 O   0  0  0  0  0  0  0  0  0  0  0  0
    5.6555   -8.5037   17.9480 C   0  0  0  0  0  0  0  0  0  0  0  0
    5.7463   -8.6081   20.0940 C   0  0  0  0  0  0  0  0  0  0  0  0
    6.3868   -6.9991   20.6500 N   0  0  0  0  0  0  0  0  0  0  0  0
    5.4422   -5.6294   19.5273 N   0  0  0  0  0  0  0  0  0  0  0  0
    5.3773   -4.4375   20.5216 C   0  0  0  0  0  0  0  0  0  0  0  0
    6.5602   -4.3092   21.6205 C   0  0  0  0  0  0  0  0  0  0  0  0
    6.0198   -4.1984   23.0273 C   0  0  0  0  0  0  0  0  0  0  0  0
    4.7824   -5.0082   22.9255 C   0  0  0  0  0  0  0  0  0  0  0  0
    4.2341   -4.5751   21.5740 C   0  0  0  0  0  0  0  0  0  0  0  0
    5.2257   -6.4389   17.7047 C   0  0  0  0  0  0  0  0  0  0  0  0
    0.8992  -15.1258   19.2323 H   0  0  0  0  0  0  0  0  0  0  0  0
    0.1767  -13.8388   19.9587 H   0  0  0  0  0  0  0  0  0  0  0  0
   -0.0679  -17.3201   20.4146 H   0  0  0  0  0  0  0  0  0  0  0  0
   -2.4186  -18.3545   19.7294 H   0  0  0  0  0  0  0  0  0  0  0  0
   -2.5173  -14.6003   18.3902 H   0  0  0  0  0  0  0  0  0  0  0  0
    2.8392  -12.0975   17.2236 H   0  0  0  0  0  0  0  0  0  0  0  0
    5.9953   -9.4521   20.7356 H   0  0  0  0  0  0  0  0  0  0  0  0
    5.4236   -3.5242   19.9451 H   0  0  0  0  0  0  0  0  0  0  0  0
    7.3075   -5.0957   21.6503 H   0  0  0  0  0  0  0  0  0  0  0  0
    7.0942   -3.3859   21.5054 H   0  0  0  0  0  0  0  0  0  0  0  0
    5.7899   -3.1546   23.2745 H   0  0  0  0  0  0  0  0  0  0  0  0
    6.7172   -4.5773   23.7804 H   0  0  0  0  0  0  0  0  0  0  0  0
    4.1205   -4.7459   23.7527 H   0  0  0  0  0  0  0  0  0  0  0  0
    4.9993   -6.0792   22.9527 H   0  0  0  0  0  0  0  0  0  0  0  0
    3.4525   -5.2587   21.2755 H   0  0  0  0  0  0  0  0  0  0  0  0
    3.8103   -3.5840   21.7687 H   0  0  0  0  0  0  0  0  0  0  0  0
    5.3980   -5.8261   16.8291 H   0  0  0  0  0  0  0  0  0  0  0  0
  1  2  2  0
  2  3  1  0
  3  4  1  0
  4  5  2  0
  5  6  1  0
  6  7  2  0
  7  8  1  0
  2  9  1  0
  9 10  1  0
 10 11  2  0
 10 12  2  0
 10 13  1  0
 13 14  1  0
 14 15  2  0
 15 16  1  0
 16 17  1  0
 17 18  1  0
 18 19  1  0
 19 20  1  0
 20 21  1  0
 16 22  1  0
  8  4  1  0
 22 13  2  0
 21 17  1  0
  3 23  1  0
  3 24  1  0
  5 25  1  0
  6 26  1  0
  8 27  1  0
  9 28  1  0
 14 29  1  0
 17 30  1  0
 18 31  1  0
 18 32  1  0
 19 33  1  0
 19 34  1  0
 20 35  1  0
 20 36  1  0
 21 37  1  0
 21 38  1  0
 22 39  1  0
M  END
>  <Energy>  (806) 
1223.4225725503634

>  <compound_id>  (806) 
13501

>  <target_id>  (806) 
1

>  <reference_id>  (806) 
96

>  <inspiration_ids>  (806) 
[96, 122]

>  <energy_score>  (806) 
1228.53563739683

>  <distance_score>  (806) 
12.872517389983786

>  <path>  (806) 
/opt/xchem-fragalysis-2/maxwin/BulkDock/SCRATCH/511016/C13501-P96/C13501-P96.minimised.mol

>  <scratch_subdir>  (806) 
/opt/xchem-fragalysis-2/maxwin/BulkDock/SCRATCH/511016/C13501-P96

>  <fragmenstein_runtime>  (806) 
20.012744188308716

>  <fragmenstein_outcome>  (806) 
too moved

>  <fragmenstein_mode>  (806) 
expansion

>  <fragmenstein_error>  (806) 


$$$$
C13501-P122
     RDKit          3D

 39 41  0  0  0  0  0  0  0  0999 V2000
    5.8617  -13.6050   20.3054 O   0  0  0  0  0  0  0  0  0  0  0  0
    5.2994  -13.4527   19.3317 C   0  0  0  0  0  0  0  0  0  0  0  0
    4.6356  -15.2397   18.6255 C   0  0  0  0  0  0  0  0  0  0  0  0
    5.7001  -16.7986   19.4501 C   0  0  0  0  0  0  0  0  0  0  0  0
    6.7094  -17.8046   19.0625 C   0  0  0  0  0  0  0  0  0  0  0  0
    7.2708  -18.7289   20.0174 C   0  0  0  0  0  0  0  0  0  0  0  0
    6.5784  -18.5780   21.1119 N   0  0  0  0  0  0  0  0  0  0  0  0
    5.5552  -17.8879   20.5707 N   0  0  0  0  0  0  0  0  0  0  0  0
    5.2567  -12.0067   18.6124 N   0  0  0  0  0  0  0  0  0  0  0  0
    6.0309  -10.5874   18.9590 S   0  0  0  0  0  0  0  0  0  0  0  0
    5.8653  -11.0804   20.3379 O   0  0  0  0  0  0  0  0  0  0  0  0
    7.5129  -10.5728   18.8908 O   0  0  0  0  0  0  0  0  0  0  0  0
    5.2625   -8.3288   18.3448 C   0  0  0  0  0  0  0  0  0  0  0  0
    6.4176   -6.9333   18.3275 C   0  0  0  0  0  0  0  0  0  0  0  0
    6.8885   -6.0610   17.2856 N   0  0  0  0  0  0  0  0  0  0  0  0
    6.9235   -6.6298   15.7558 N   0  0  0  0  0  0  0  0  0  0  0  0
    8.4646   -6.8355   14.3996 C   0  0  0  0  0  0  0  0  0  0  0  0
    9.7896   -5.0735   14.3859 C   0  0  0  0  0  0  0  0  0  0  0  0
   11.0886   -5.0402   12.9025 C   0  0  0  0  0  0  0  0  0  0  0  0
   10.9883   -6.7512   11.8018 C   0  0  0  0  0  0  0  0  0  0  0  0
    8.7294   -7.4042   12.2076 C   0  0  0  0  0  0  0  0  0  0  0  0
    5.6216   -7.1261   16.9962 C   0  0  0  0  0  0  0  0  0  0  0  0
    3.5279  -15.3256   18.6009 H   0  0  0  0  0  0  0  0  0  0  0  0
    4.7925  -15.2938   17.5623 H   0  0  0  0  0  0  0  0  0  0  0  0
    6.9043  -18.0772   18.0498 H   0  0  0  0  0  0  0  0  0  0  0  0
    8.0502  -19.4710   19.9173 H   0  0  0  0  0  0  0  0  0  0  0  0
    4.7497  -18.4764   20.6354 H   0  0  0  0  0  0  0  0  0  0  0  0
    4.6122  -12.0651   17.8064 H   0  0  0  0  0  0  0  0  0  0  0  0
    7.0370   -6.9148   19.2040 H   0  0  0  0  0  0  0  0  0  0  0  0
    7.5960   -7.5731   14.2225 H   0  0  0  0  0  0  0  0  0  0  0  0
   10.7142   -4.9982   15.0405 H   0  0  0  0  0  0  0  0  0  0  0  0
    9.3224   -4.1174   14.8251 H   0  0  0  0  0  0  0  0  0  0  0  0
   10.8968   -4.2629   12.1786 H   0  0  0  0  0  0  0  0  0  0  0  0
   11.9801   -4.4699   13.1571 H   0  0  0  0  0  0  0  0  0  0  0  0
   11.4187   -6.0972   10.9369 H   0  0  0  0  0  0  0  0  0  0  0  0
   11.9112   -7.3396   11.6751 H   0  0  0  0  0  0  0  0  0  0  0  0
    7.8494   -6.8626   12.0285 H   0  0  0  0  0  0  0  0  0  0  0  0
    8.3149   -8.1262   11.4596 H   0  0  0  0  0  0  0  0  0  0  0  0
    4.8455   -6.3468   16.8037 H   0  0  0  0  0  0  0  0  0  0  0  0
  1  2  2  0
  2  3  1  0
  3  4  1  0
  4  5  2  0
  5  6  1  0
  6  7  2  0
  7  8  1  0
  2  9  1  0
  9 10  1  0
 10 11  2  0
 10 12  2  0
 10 13  1  0
 13 14  1  0
 14 15  2  0
 15 16  1  0
 16 17  1  0
 17 18  1  0
 18 19  1  0
 19 20  1  0
 20 21  1  0
 16 22  1  0
  8  4  1  0
 22 13  2  0
 21 17  1  0
  3 23  1  0
  3 24  1  0
  5 25  1  0
  6 26  1  0
  8 27  1  0
  9 28  1  0
 14 29  1  0
 17 30  1  0
 18 31  1  0
 18 32  1  0
 19 33  1  0
 19 34  1  0
 20 35  1  0
 20 36  1  0
 21 37  1  0
 21 38  1  0
 22 39  1  0
M  END
>  <Energy>  (807) 
1849.8647116944726

>  <compound_id>  (807) 
13501

>  <target_id>  (807) 
1

>  <reference_id>  (807) 
122

>  <inspiration_ids>  (807) 
[96, 122]

>  <energy_score>  (807) 
1854.9777765409483

>  <distance_score>  (807) 
15.889373473933992

>  <path>  (807) 
/opt/xchem-fragalysis-2/maxwin/BulkDock/SCRATCH/511016/C13501-P122/C13501-P122.minimised.mol

>  <scratch_subdir>  (807) 
/opt/xchem-fragalysis-2/maxwin/BulkDock/SCRATCH/511016/C13501-P122

>  <fragmenstein_runtime>  (807) 
29.995492696762085

>  <fragmenstein_outcome>  (807) 
too moved

>  <fragmenstein_mode>  (807) 
expansion

>  <fragmenstein_error>  (807) 


$$$$
C13502-P96
     RDKit          3D

 35 37  0  0  0  0  0  0  0  0999 V2000
   -0.8235  -18.2151   16.6182 O   0  0  0  0  0  0  0  0  0  0  0  0
   -1.2876  -17.1130   16.8976 C   0  0  0  0  0  0  0  0  0  0  0  0
   -2.2427  -16.9430   17.9031 O   0  0  0  0  0  0  0  0  0  0  0  0
   -2.5734  -18.2186   18.5320 C   0  0  0  0  0  0  0  0  0  0  0  0
   -3.4390  -18.0949   19.7719 C   0  0  0  0  0  0  0  0  0  0  0  0
   -3.1114  -18.1042   21.1193 C   0  0  0  0  0  0  0  0  0  0  0  0
   -4.3352  -18.1872   21.8141 C   0  0  0  0  0  0  0  0  0  0  0  0
   -5.3791  -18.2081   20.9849 N   0  0  0  0  0  0  0  0  0  0  0  0
   -4.8128  -18.1796   19.7587 N   0  0  0  0  0  0  0  0  0  0  0  0
   -0.8519  -15.9165   16.1523 C   0  0  0  0  0  0  0  0  0  0  0  0
   -1.4226  -14.6403   15.9682 C   0  0  0  0  0  0  0  0  0  0  0  0
   -0.6970  -13.8239   15.1896 N   0  0  0  0  0  0  0  0  0  0  0  0
    0.3193  -14.5965   14.7677 N   0  0  0  0  0  0  0  0  0  0  0  0
    1.1560  -14.1106   13.6836 C   0  0  0  0  0  0  0  0  0  0  0  0
    2.4545  -13.4427   14.1550 C   0  0  0  0  0  0  0  0  0  0  0  0
    3.4621  -13.7577   13.0591 C   0  0  0  0  0  0  0  0  0  0  0  0
    3.0955  -15.1707   12.6436 C   0  0  0  0  0  0  0  0  0  0  0  0
    1.5718  -15.1605   12.6331 C   0  0  0  0  0  0  0  0  0  0  0  0
    0.2770  -15.8386   15.3369 C   0  0  0  0  0  0  0  0  0  0  0  0
   -1.6460  -18.7251   18.8299 H   0  0  0  0  0  0  0  0  0  0  0  0
   -3.0965  -18.8389   17.7936 H   0  0  0  0  0  0  0  0  0  0  0  0
   -2.1137  -18.1008   21.5393 H   0  0  0  0  0  0  0  0  0  0  0  0
   -4.5016  -18.2337   22.8820 H   0  0  0  0  0  0  0  0  0  0  0  0
   -5.4242  -18.2454   18.9517 H   0  0  0  0  0  0  0  0  0  0  0  0
   -2.3560  -14.2731   16.3758 H   0  0  0  0  0  0  0  0  0  0  0  0
    0.5510  -13.3576   13.1580 H   0  0  0  0  0  0  0  0  0  0  0  0
    2.7908  -13.8445   15.1157 H   0  0  0  0  0  0  0  0  0  0  0  0
    2.3399  -12.3618   14.2799 H   0  0  0  0  0  0  0  0  0  0  0  0
    3.3297  -13.0689   12.2162 H   0  0  0  0  0  0  0  0  0  0  0  0
    4.4962  -13.6762   13.4019 H   0  0  0  0  0  0  0  0  0  0  0  0
    3.4638  -15.8921   13.3809 H   0  0  0  0  0  0  0  0  0  0  0  0
    3.5135  -15.4392   11.6691 H   0  0  0  0  0  0  0  0  0  0  0  0
    1.1609  -16.1613   12.7918 H   0  0  0  0  0  0  0  0  0  0  0  0
    1.2242  -14.8308   11.6455 H   0  0  0  0  0  0  0  0  0  0  0  0
    0.9895  -16.6110   15.0864 H   0  0  0  0  0  0  0  0  0  0  0  0
  1  2  2  0
  2  3  1  0
  3  4  1  0
  4  5  1  0
  5  6  2  0
  6  7  1  0
  7  8  2  0
  8  9  1  0
  2 10  1  0
 10 11  1  0
 11 12  2  0
 12 13  1  0
 13 14  1  0
 14 15  1  0
 15 16  1  0
 16 17  1  0
 17 18  1  0
 13 19  1  0
  9  5  1  0
 19 10  2  0
 18 14  1  0
  4 20  1  0
  4 21  1  0
  6 22  1  0
  7 23  1  0
  9 24  1  0
 11 25  1  0
 14 26  1  0
 15 27  1  0
 15 28  1  0
 16 29  1  0
 16 30  1  0
 17 31  1  0
 17 32  1  0
 18 33  1  0
 18 34  1  0
 19 35  1  0
M  END
>  <Energy>  (808) 
17.796361111205652

>  <compound_id>  (808) 
13502

>  <target_id>  (808) 
1

>  <reference_id>  (808) 
96

>  <inspiration_ids>  (808) 
[96, 122]

>  <energy_score>  (808) 
-26.84427196535262

>  <distance_score>  (808) 
15.230100667787063

>  <path>  (808) 
/opt/xchem-fragalysis-2/maxwin/BulkDock/SCRATCH/511016/C13502-P96/C13502-P96.minimised.mol

>  <scratch_subdir>  (808) 
/opt/xchem-fragalysis-2/maxwin/BulkDock/SCRATCH/511016/C13502-P96

>  <fragmenstein_runtime>  (808) 
13.632165670394897

>  <fragmenstein_outcome>  (808) 
too moved

>  <fragmenstein_mode>  (808) 
expansion

>  <fragmenstein_error>  (808) 


$$$$
C13502-P122
     RDKit          3D

 35 37  0  0  0  0  0  0  0  0999 V2000
    7.0643  -10.3013   19.9366 O   0  0  0  0  0  0  0  0  0  0  0  0
    7.1241  -10.8527   18.9217 C   0  0  0  0  0  0  0  0  0  0  0  0
    5.8418  -11.7920   18.6690 O   0  0  0  0  0  0  0  0  0  0  0  0
    4.6206  -13.0316   19.3362 C   0  0  0  0  0  0  0  0  0  0  0  0
    3.7016  -14.4166   18.3495 C   0  0  0  0  0  0  0  0  0  0  0  0
    2.3459  -14.7244   17.9851 C   0  0  0  0  0  0  0  0  0  0  0  0
    2.2784  -15.9543   17.2804 C   0  0  0  0  0  0  0  0  0  0  0  0
    3.4556  -16.5537   17.3460 N   0  0  0  0  0  0  0  0  0  0  0  0
    4.1355  -15.7340   18.1853 N   0  0  0  0  0  0  0  0  0  0  0  0
    8.6207  -10.7880   17.7703 C   0  0  0  0  0  0  0  0  0  0  0  0
    8.9206  -10.7865   16.3274 C   0  0  0  0  0  0  0  0  0  0  0  0
   10.0307  -11.4172   15.8620 N   0  0  0  0  0  0  0  0  0  0  0  0
   10.5509  -11.8581   16.9777 N   0  0  0  0  0  0  0  0  0  0  0  0
   11.4647  -12.9601   17.2010 C   0  0  0  0  0  0  0  0  0  0  0  0
   11.1873  -14.3482   16.6250 C   0  0  0  0  0  0  0  0  0  0  0  0
   12.4874  -15.0875   16.9226 C   0  0  0  0  0  0  0  0  0  0  0  0
   13.5833  -14.0457   16.7169 C   0  0  0  0  0  0  0  0  0  0  0  0
   12.9600  -12.6918   17.0693 C   0  0  0  0  0  0  0  0  0  0  0  0
    9.9781  -11.1709   18.0146 C   0  0  0  0  0  0  0  0  0  0  0  0
    5.4779  -13.6791   19.4302 H   0  0  0  0  0  0  0  0  0  0  0  0
    4.0001  -12.5539   18.5916 H   0  0  0  0  0  0  0  0  0  0  0  0
    1.5095  -14.0661   17.9338 H   0  0  0  0  0  0  0  0  0  0  0  0
    1.4525  -16.3988   16.7430 H   0  0  0  0  0  0  0  0  0  0  0  0
    4.8567  -16.1501   18.7543 H   0  0  0  0  0  0  0  0  0  0  0  0
    8.3391  -10.3828   15.5358 H   0  0  0  0  0  0  0  0  0  0  0  0
   11.3500  -13.1623   18.2732 H   0  0  0  0  0  0  0  0  0  0  0  0
   10.3392  -14.8332   17.1201 H   0  0  0  0  0  0  0  0  0  0  0  0
   10.9758  -14.3698   15.5617 H   0  0  0  0  0  0  0  0  0  0  0  0
   12.6227  -15.9638   16.2820 H   0  0  0  0  0  0  0  0  0  0  0  0
   12.4920  -15.4292   17.9648 H   0  0  0  0  0  0  0  0  0  0  0  0
   13.9142  -14.0608   15.6747 H   0  0  0  0  0  0  0  0  0  0  0  0
   14.4621  -14.2594   17.3338 H   0  0  0  0  0  0  0  0  0  0  0  0
   13.3608  -12.3319   18.0255 H   0  0  0  0  0  0  0  0  0  0  0  0
   13.1931  -11.9157   16.3419 H   0  0  0  0  0  0  0  0  0  0  0  0
   10.6821  -11.1668   18.8092 H   0  0  0  0  0  0  0  0  0  0  0  0
  1  2  2  0
  2  3  1  0
  3  4  1  0
  4  5  1  0
  5  6  2  0
  6  7  1  0
  7  8  2  0
  8  9  1  0
  2 10  1  0
 10 11  1  0
 11 12  2  0
 12 13  1  0
 13 14  1  0
 14 15  1  0
 15 16  1  0
 16 17  1  0
 17 18  1  0
 13 19  1  0
  9  5  1  0
 19 10  2  0
 18 14  1  0
  4 20  1  0
  4 21  1  0
  6 22  1  0
  7 23  1  0
  9 24  1  0
 11 25  1  0
 14 26  1  0
 15 27  1  0
 15 28  1  0
 16 29  1  0
 16 30  1  0
 17 31  1  0
 17 32  1  0
 18 33  1  0
 18 34  1  0
 19 35  1  0
M  END
>  <Energy>  (809) 
326.85453554052816

>  <compound_id>  (809) 
13502

>  <target_id>  (809) 
1

>  <reference_id>  (809) 
122

>  <inspiration_ids>  (809) 
[96, 122]

>  <energy_score>  (809) 
282.21390246396675

>  <distance_score>  (809) 
15.883698592934003

>  <path>  (809) 
/opt/xchem-fragalysis-2/maxwin/BulkDock/SCRATCH/511016/C13502-P122/C13502-P122.minimised.mol

>  <scratch_subdir>  (809) 
/opt/xchem-fragalysis-2/maxwin/BulkDock/SCRATCH/511016/C13502-P122

>  <fragmenstein_runtime>  (809) 
18.53784942626953

>  <fragmenstein_outcome>  (809) 
too moved

>  <fragmenstein_mode>  (809) 
expansion

>  <fragmenstein_error>  (809) 


$$$$
C13503-P96
     RDKit          3D

 36 38  0  0  0  0  0  0  0  0999 V2000
    1.7876  -14.7733   15.0175 O   0  0  0  0  0  0  0  0  0  0  0  0
    1.4371  -14.5166   16.1582 C   0  0  0  0  0  0  0  0  0  0  0  0
    0.0529  -15.3765   16.6992 C   0  0  0  0  0  0  0  0  0  0  0  0
   -0.3590  -16.8481   16.8247 C   0  0  0  0  0  0  0  0  0  0  0  0
    0.1727  -18.1088   16.6537 C   0  0  0  0  0  0  0  0  0  0  0  0
   -0.7407  -19.0080   17.2680 C   0  0  0  0  0  0  0  0  0  0  0  0
   -1.8195  -18.3895   17.7450 N   0  0  0  0  0  0  0  0  0  0  0  0
   -1.5913  -17.1072   17.4333 N   0  0  0  0  0  0  0  0  0  0  0  0
    2.0216  -13.3615   17.2544 N   0  0  0  0  0  0  0  0  0  0  0  0
    3.2516  -12.0562   17.0797 C   0  0  0  0  0  0  0  0  0  0  0  0
    3.7246  -11.0739   18.2986 C   0  0  0  0  0  0  0  0  0  0  0  0
    4.8021  -10.1100   18.2979 N   0  0  0  0  0  0  0  0  0  0  0  0
    5.2510  -10.0906   16.9846 N   0  0  0  0  0  0  0  0  0  0  0  0
    6.7404   -9.2770   15.9749 C   0  0  0  0  0  0  0  0  0  0  0  0
    8.5546   -9.6744   15.5342 C   0  0  0  0  0  0  0  0  0  0  0  0
    9.0670  -10.7315   14.5505 C   0  0  0  0  0  0  0  0  0  0  0  0
    7.9864  -10.6593   13.5486 C   0  0  0  0  0  0  0  0  0  0  0  0
    6.8822   -9.7366   14.1502 C   0  0  0  0  0  0  0  0  0  0  0  0
    4.6230  -11.7154   17.1127 C   0  0  0  0  0  0  0  0  0  0  0  0
   -0.1255  -15.1801   17.7489 H   0  0  0  0  0  0  0  0  0  0  0  0
   -0.7536  -14.8835   16.1347 H   0  0  0  0  0  0  0  0  0  0  0  0
    1.1321  -18.3617   16.2246 H   0  0  0  0  0  0  0  0  0  0  0  0
   -0.6476  -20.0806   17.3820 H   0  0  0  0  0  0  0  0  0  0  0  0
   -2.2910  -16.4285   17.7103 H   0  0  0  0  0  0  0  0  0  0  0  0
    1.5666  -13.4709   18.1449 H   0  0  0  0  0  0  0  0  0  0  0  0
    3.1187  -11.0992   19.1864 H   0  0  0  0  0  0  0  0  0  0  0  0
    6.7291   -8.2755   16.3062 H   0  0  0  0  0  0  0  0  0  0  0  0
    9.3879   -9.2622   16.0956 H   0  0  0  0  0  0  0  0  0  0  0  0
    8.7257   -8.9254   14.7739 H   0  0  0  0  0  0  0  0  0  0  0  0
    9.2942  -11.7320   14.9305 H   0  0  0  0  0  0  0  0  0  0  0  0
   10.0091  -10.3911   14.1044 H   0  0  0  0  0  0  0  0  0  0  0  0
    7.6351  -11.6258   13.1971 H   0  0  0  0  0  0  0  0  0  0  0  0
    8.3614  -10.1790   12.6335 H   0  0  0  0  0  0  0  0  0  0  0  0
    6.0883  -10.0860   13.5457 H   0  0  0  0  0  0  0  0  0  0  0  0
    7.2069   -8.8265   13.6668 H   0  0  0  0  0  0  0  0  0  0  0  0
    5.2404  -12.4234   17.5655 H   0  0  0  0  0  0  0  0  0  0  0  0
  1  2  2  0
  2  3  1  0
  3  4  1  0
  4  5  2  0
  5  6  1  0
  6  7  2  0
  7  8  1  0
  2  9  1  0
  9 10  1  0
 10 11  1  0
 11 12  2  0
 12 13  1  0
 13 14  1  0
 14 15  1  0
 15 16  1  0
 16 17  1  0
 17 18  1  0
 13 19  1  0
  8  4  1  0
 19 10  2  0
 18 14  1  0
  3 20  1  0
  3 21  1  0
  5 22  1  0
  6 23  1  0
  8 24  1  0
  9 25  1  0
 11 26  1  0
 14 27  1  0
 15 28  1  0
 15 29  1  0
 16 30  1  0
 16 31  1  0
 17 32  1  0
 17 33  1  0
 18 34  1  0
 18 35  1  0
 19 36  1  0
M  END
>  <Energy>  (810) 
636.04040551755361

>  <compound_id>  (810) 
13503

>  <target_id>  (810) 
1

>  <reference_id>  (810) 
96

>  <inspiration_ids>  (810) 
[96, 122]

>  <energy_score>  (810) 
572.9967184566979

>  <distance_score>  (810) 
14.773895092558655

>  <path>  (810) 
/opt/xchem-fragalysis-2/maxwin/BulkDock/SCRATCH/511016/C13503-P96/C13503-P96.minimised.mol

>  <scratch_subdir>  (810) 
/opt/xchem-fragalysis-2/maxwin/BulkDock/SCRATCH/511016/C13503-P96

>  <fragmenstein_runtime>  (810) 
20.756684064865112

>  <fragmenstein_outcome>  (810) 
too moved

>  <fragmenstein_mode>  (810) 
expansion

>  <fragmenstein_error>  (810) 


$$$$
C13503-P122
     RDKit          3D

 36 38  0  0  0  0  0  0  0  0999 V2000
   -5.7857  -13.1092   21.8092 O   0  0  0  0  0  0  0  0  0  0  0  0
   -5.6718  -12.2938   22.6847 C   0  0  0  0  0  0  0  0  0  0  0  0
   -6.2963  -12.5455   24.0894 C   0  0  0  0  0  0  0  0  0  0  0  0
   -6.7295  -13.9595   24.4482 C   0  0  0  0  0  0  0  0  0  0  0  0
   -6.8404  -14.5658   25.6906 C   0  0  0  0  0  0  0  0  0  0  0  0
   -7.3999  -15.8317   25.4503 C   0  0  0  0  0  0  0  0  0  0  0  0
   -7.6348  -16.0347   24.1541 N   0  0  0  0  0  0  0  0  0  0  0  0
   -7.1687  -14.9120   23.5587 N   0  0  0  0  0  0  0  0  0  0  0  0
   -4.9928  -10.9815   22.6958 N   0  0  0  0  0  0  0  0  0  0  0  0
   -4.2135  -10.3506   21.7308 C   0  0  0  0  0  0  0  0  0  0  0  0
   -3.4607   -9.1463   21.8573 C   0  0  0  0  0  0  0  0  0  0  0  0
   -2.7923   -8.8256   20.7492 N   0  0  0  0  0  0  0  0  0  0  0  0
   -3.1940   -9.7499   19.8558 N   0  0  0  0  0  0  0  0  0  0  0  0
   -2.9801   -9.5732   18.4289 C   0  0  0  0  0  0  0  0  0  0  0  0
   -4.2196   -9.9102   17.5758 C   0  0  0  0  0  0  0  0  0  0  0  0
   -4.1909   -8.9893   16.3544 C   0  0  0  0  0  0  0  0  0  0  0  0
   -2.9558   -8.1158   16.5020 C   0  0  0  0  0  0  0  0  0  0  0  0
   -2.6536   -8.1435   17.9876 C   0  0  0  0  0  0  0  0  0  0  0  0
   -3.9352  -10.7496   20.4440 C   0  0  0  0  0  0  0  0  0  0  0  0
   -7.1720  -11.8903   24.1729 H   0  0  0  0  0  0  0  0  0  0  0  0
   -5.5662  -12.2301   24.8459 H   0  0  0  0  0  0  0  0  0  0  0  0
   -6.5801  -14.1358   26.6476 H   0  0  0  0  0  0  0  0  0  0  0  0
   -7.6551  -16.5975   26.1698 H   0  0  0  0  0  0  0  0  0  0  0  0
   -7.1833  -14.8501   22.5423 H   0  0  0  0  0  0  0  0  0  0  0  0
   -5.0264  -10.5977   23.6323 H   0  0  0  0  0  0  0  0  0  0  0  0
   -3.3685   -8.4973   22.7178 H   0  0  0  0  0  0  0  0  0  0  0  0
   -2.1592  -10.2456   18.1631 H   0  0  0  0  0  0  0  0  0  0  0  0
   -4.2138  -10.9644   17.2773 H   0  0  0  0  0  0  0  0  0  0  0  0
   -5.1533   -9.7400   18.1263 H   0  0  0  0  0  0  0  0  0  0  0  0
   -4.1735   -9.5535   15.4167 H   0  0  0  0  0  0  0  0  0  0  0  0
   -5.0942   -8.3682   16.3409 H   0  0  0  0  0  0  0  0  0  0  0  0
   -2.1153   -8.5273   15.9357 H   0  0  0  0  0  0  0  0  0  0  0  0
   -3.1265   -7.0988   16.1355 H   0  0  0  0  0  0  0  0  0  0  0  0
   -3.3043   -7.4190   18.4917 H   0  0  0  0  0  0  0  0  0  0  0  0
   -1.6112   -7.8807   18.1877 H   0  0  0  0  0  0  0  0  0  0  0  0
   -4.2654  -11.6100   19.8778 H   0  0  0  0  0  0  0  0  0  0  0  0
  1  2  2  0
  2  3  1  0
  3  4  1  0
  4  5  2  0
  5  6  1  0
  6  7  2  0
  7  8  1  0
  2  9  1  0
  9 10  1  0
 10 11  1  0
 11 12  2  0
 12 13  1  0
 13 14  1  0
 14 15  1  0
 15 16  1  0
 16 17  1  0
 17 18  1  0
 13 19  1  0
  8  4  1  0
 19 10  2  0
 18 14  1  0
  3 20  1  0
  3 21  1  0
  5 22  1  0
  6 23  1  0
  8 24  1  0
  9 25  1  0
 11 26  1  0
 14 27  1  0
 15 28  1  0
 15 29  1  0
 16 30  1  0
 16 31  1  0
 17 32  1  0
 17 33  1  0
 18 34  1  0
 18 35  1  0
 19 36  1  0
M  END
>  <Energy>  (811) 
41.253436819061882

>  <compound_id>  (811) 
13503

>  <target_id>  (811) 
1

>  <reference_id>  (811) 
122

>  <inspiration_ids>  (811) 
[96, 122]

>  <energy_score>  (811) 
-21.790250241789636

>  <distance_score>  (811) 
14.921336014585233

>  <path>  (811) 
/opt/xchem-fragalysis-2/maxwin/BulkDock/SCRATCH/511016/C13503-P122/C13503-P122.minimised.mol

>  <scratch_subdir>  (811) 
/opt/xchem-fragalysis-2/maxwin/BulkDock/SCRATCH/511016/C13503-P122

>  <fragmenstein_runtime>  (811) 
32.222134590148926

>  <fragmenstein_outcome>  (811) 
too moved

>  <fragmenstein_mode>  (811) 
expansion

>  <fragmenstein_error>  (811) 


$$$$
C13504-P96
     RDKit          3D

 40 42  0  0  0  0  0  0  0  0999 V2000
   -4.8259  -11.4007   16.1583 O   0  0  0  0  0  0  0  0  0  0  0  0
   -3.6772  -11.4121   17.0573 S   0  0  0  0  0  0  0  0  0  0  0  0
   -3.8013  -11.3906   18.4975 O   0  0  0  0  0  0  0  0  0  0  0  0
   -2.8298  -13.2732   16.6387 N   0  0  0  0  0  0  0  0  0  0  0  0
   -2.6862  -14.6464   17.9984 C   0  0  0  0  0  0  0  0  0  0  0  0
   -3.2344  -16.1509   18.4397 C   0  0  0  0  0  0  0  0  0  0  0  0
   -4.1309  -17.3357   18.0190 C   0  0  0  0  0  0  0  0  0  0  0  0
   -3.7772  -18.7139   18.2024 C   0  0  0  0  0  0  0  0  0  0  0  0
   -4.9522  -19.4262   18.1883 C   0  0  0  0  0  0  0  0  0  0  0  0
   -5.9257  -18.5111   17.9343 N   0  0  0  0  0  0  0  0  0  0  0  0
   -7.3489  -18.7772   17.8395 C   0  0  0  0  0  0  0  0  0  0  0  0
   -7.9551  -18.3987   16.4804 C   0  0  0  0  0  0  0  0  0  0  0  0
   -9.3593  -17.9197   16.8151 C   0  0  0  0  0  0  0  0  0  0  0  0
   -9.1637  -17.1690   18.1211 C   0  0  0  0  0  0  0  0  0  0  0  0
   -8.1815  -18.0357   18.9013 C   0  0  0  0  0  0  0  0  0  0  0  0
   -5.4479  -17.2564   17.7814 N   0  0  0  0  0  0  0  0  0  0  0  0
   -3.3210   -9.6540   16.8751 C   0  0  0  0  0  0  0  0  0  0  0  0
   -3.0372   -8.6300   17.8076 C   0  0  0  0  0  0  0  0  0  0  0  0
   -2.8067   -7.4608   17.0548 C   0  0  0  0  0  0  0  0  0  0  0  0
   -3.1734   -7.6308   15.7835 N   0  0  0  0  0  0  0  0  0  0  0  0
   -3.6612   -8.8925   15.7860 N   0  0  0  0  0  0  0  0  0  0  0  0
   -3.3252  -13.6492   15.8193 H   0  0  0  0  0  0  0  0  0  0  0  0
   -2.7858  -14.1069   18.9521 H   0  0  0  0  0  0  0  0  0  0  0  0
   -1.6512  -14.7968   18.0758 H   0  0  0  0  0  0  0  0  0  0  0  0
   -3.6778  -15.9518   19.4117 H   0  0  0  0  0  0  0  0  0  0  0  0
   -2.2991  -16.6602   18.7275 H   0  0  0  0  0  0  0  0  0  0  0  0
   -2.8014  -19.1164   18.4256 H   0  0  0  0  0  0  0  0  0  0  0  0
   -5.1642  -20.4765   18.3338 H   0  0  0  0  0  0  0  0  0  0  0  0
   -7.4766  -19.8566   17.9963 H   0  0  0  0  0  0  0  0  0  0  0  0
   -7.3966  -17.5910   15.9924 H   0  0  0  0  0  0  0  0  0  0  0  0
   -7.9689  -19.2485   15.7902 H   0  0  0  0  0  0  0  0  0  0  0  0
   -9.7806  -17.2864   16.0293 H   0  0  0  0  0  0  0  0  0  0  0  0
  -10.0279  -18.7757   16.9639 H   0  0  0  0  0  0  0  0  0  0  0  0
   -8.7231  -16.1848   17.9261 H   0  0  0  0  0  0  0  0  0  0  0  0
  -10.1030  -17.0192   18.6611 H   0  0  0  0  0  0  0  0  0  0  0  0
   -8.7393  -18.7690   19.4971 H   0  0  0  0  0  0  0  0  0  0  0  0
   -7.5865  -17.4382   19.6000 H   0  0  0  0  0  0  0  0  0  0  0  0
   -2.8478   -8.7897   18.8592 H   0  0  0  0  0  0  0  0  0  0  0  0
   -2.4197   -6.5053   17.3814 H   0  0  0  0  0  0  0  0  0  0  0  0
   -4.2664   -9.1701   15.0253 H   0  0  0  0  0  0  0  0  0  0  0  0
  1  2  2  0
  2  3  2  0
  2  4  1  0
  4  5  1  0
  5  6  1  0
  6  7  1  0
  7  8  1  0
  8  9  2  0
  9 10  1  0
 10 11  1  0
 11 12  1  0
 12 13  1  0
 13 14  1  0
 14 15  1  0
 10 16  1  0
  2 17  1  0
 17 18  2  0
 18 19  1  0
 19 20  2  0
 20 21  1  0
 16  7  2  0
 21 17  1  0
 15 11  1  0
  4 22  1  0
  5 23  1  0
  5 24  1  0
  6 25  1  0
  6 26  1  0
  8 27  1  0
  9 28  1  0
 11 29  1  0
 12 30  1  0
 12 31  1  0
 13 32  1  0
 13 33  1  0
 14 34  1  0
 14 35  1  0
 15 36  1  0
 15 37  1  0
 18 38  1  0
 19 39  1  0
 21 40  1  0
M  END
>  <Energy>  (812) 
125.41786725519641

>  <compound_id>  (812) 
13504

>  <target_id>  (812) 
1

>  <reference_id>  (812) 
96

>  <inspiration_ids>  (812) 
[96, 122]

>  <energy_score>  (812) 
151.89669208833828

>  <distance_score>  (812) 
15.36477486296558

>  <path>  (812) 
/opt/xchem-fragalysis-2/maxwin/BulkDock/SCRATCH/511016/C13504-P96/C13504-P96.minimised.mol

>  <scratch_subdir>  (812) 
/opt/xchem-fragalysis-2/maxwin/BulkDock/SCRATCH/511016/C13504-P96

>  <fragmenstein_runtime>  (812) 
20.627963304519653

>  <fragmenstein_outcome>  (812) 
too moved

>  <fragmenstein_mode>  (812) 
expansion

>  <fragmenstein_error>  (812) 


$$$$
C13504-P122
     RDKit          3D

 40 42  0  0  0  0  0  0  0  0999 V2000
   -3.5863  -11.4812   19.4502 O   0  0  0  0  0  0  0  0  0  0  0  0
   -2.7151  -11.0217   18.3939 S   0  0  0  0  0  0  0  0  0  0  0  0
   -3.1691  -10.2823   17.2397 O   0  0  0  0  0  0  0  0  0  0  0  0
   -2.0058  -12.5345   17.9042 N   0  0  0  0  0  0  0  0  0  0  0  0
   -2.4459  -14.0428   16.9911 C   0  0  0  0  0  0  0  0  0  0  0  0
   -3.9542  -14.8423   16.3784 C   0  0  0  0  0  0  0  0  0  0  0  0
   -4.7650  -16.1668   16.9326 C   0  0  0  0  0  0  0  0  0  0  0  0
   -6.1961  -16.2819   16.9073 C   0  0  0  0  0  0  0  0  0  0  0  0
   -6.5140  -17.4166   17.6139 C   0  0  0  0  0  0  0  0  0  0  0  0
   -5.3215  -17.9802   17.9590 N   0  0  0  0  0  0  0  0  0  0  0  0
   -5.1797  -19.2433   18.6710 C   0  0  0  0  0  0  0  0  0  0  0  0
   -3.7481  -19.6362   19.0393 C   0  0  0  0  0  0  0  0  0  0  0  0
   -3.2198  -20.4535   17.8564 C   0  0  0  0  0  0  0  0  0  0  0  0
   -4.4215  -20.7621   16.9696 C   0  0  0  0  0  0  0  0  0  0  0  0
   -5.6371  -20.4353   17.8243 C   0  0  0  0  0  0  0  0  0  0  0  0
   -4.2523  -17.2424   17.5658 N   0  0  0  0  0  0  0  0  0  0  0  0
   -1.9097   -9.6282   19.2941 C   0  0  0  0  0  0  0  0  0  0  0  0
   -1.9277   -9.2137   20.6245 C   0  0  0  0  0  0  0  0  0  0  0  0
   -1.1686   -8.0250   20.7077 C   0  0  0  0  0  0  0  0  0  0  0  0
   -0.7280   -7.6334   19.5161 N   0  0  0  0  0  0  0  0  0  0  0  0
   -1.1228   -8.6445   18.7159 N   0  0  0  0  0  0  0  0  0  0  0  0
   -1.9398  -12.9145   18.8341 H   0  0  0  0  0  0  0  0  0  0  0  0
   -1.7295  -14.1295   16.1995 H   0  0  0  0  0  0  0  0  0  0  0  0
   -2.0008  -14.7484   17.6875 H   0  0  0  0  0  0  0  0  0  0  0  0
   -4.7652  -14.1241   16.4621 H   0  0  0  0  0  0  0  0  0  0  0  0
   -3.7725  -15.0675   15.3238 H   0  0  0  0  0  0  0  0  0  0  0  0
   -6.8948  -15.5763   16.4798 H   0  0  0  0  0  0  0  0  0  0  0  0
   -7.4621  -17.8669   17.8724 H   0  0  0  0  0  0  0  0  0  0  0  0
   -5.7920  -19.1407   19.5748 H   0  0  0  0  0  0  0  0  0  0  0  0
   -3.7699  -20.2815   19.9270 H   0  0  0  0  0  0  0  0  0  0  0  0
   -3.1049  -18.7849   19.2799 H   0  0  0  0  0  0  0  0  0  0  0  0
   -2.7513  -21.3773   18.2133 H   0  0  0  0  0  0  0  0  0  0  0  0
   -2.4616  -19.9009   17.2931 H   0  0  0  0  0  0  0  0  0  0  0  0
   -4.4011  -20.1211   16.0802 H   0  0  0  0  0  0  0  0  0  0  0  0
   -4.4260  -21.8015   16.6279 H   0  0  0  0  0  0  0  0  0  0  0  0
   -5.8636  -21.2877   18.4762 H   0  0  0  0  0  0  0  0  0  0  0  0
   -6.5221  -20.2382   17.2118 H   0  0  0  0  0  0  0  0  0  0  0  0
   -2.4627   -9.7151   21.4145 H   0  0  0  0  0  0  0  0  0  0  0  0
   -0.9577   -7.4182   21.5781 H   0  0  0  0  0  0  0  0  0  0  0  0
   -0.6682   -8.6838   17.8213 H   0  0  0  0  0  0  0  0  0  0  0  0
  1  2  2  0
  2  3  2  0
  2  4  1  0
  4  5  1  0
  5  6  1  0
  6  7  1  0
  7  8  1  0
  8  9  2  0
  9 10  1  0
 10 11  1  0
 11 12  1  0
 12 13  1  0
 13 14  1  0
 14 15  1  0
 10 16  1  0
  2 17  1  0
 17 18  2  0
 18 19  1  0
 19 20  2  0
 20 21  1  0
 16  7  2  0
 21 17  1  0
 15 11  1  0
  4 22  1  0
  5 23  1  0
  5 24  1  0
  6 25  1  0
  6 26  1  0
  8 27  1  0
  9 28  1  0
 11 29  1  0
 12 30  1  0
 12 31  1  0
 13 32  1  0
 13 33  1  0
 14 34  1  0
 14 35  1  0
 15 36  1  0
 15 37  1  0
 18 38  1  0
 19 39  1  0
 21 40  1  0
M  END
>  <Energy>  (813) 
68.203438649397043

>  <compound_id>  (813) 
13504

>  <target_id>  (813) 
1

>  <reference_id>  (813) 
122

>  <inspiration_ids>  (813) 
[96, 122]

>  <energy_score>  (813) 
94.68226348254069

>  <distance_score>  (813) 
15.26609260947713

>  <path>  (813) 
/opt/xchem-fragalysis-2/maxwin/BulkDock/SCRATCH/511016/C13504-P122/C13504-P122.minimised.mol

>  <scratch_subdir>  (813) 
/opt/xchem-fragalysis-2/maxwin/BulkDock/SCRATCH/511016/C13504-P122

>  <fragmenstein_runtime>  (813) 
28.477547645568848

>  <fragmenstein_outcome>  (813) 
too moved

>  <fragmenstein_mode>  (813) 
expansion

>  <fragmenstein_error>  (813) 


$$$$
C13505-P96
     RDKit          3D

 45 46  0  0  0  0  0  0  0  0999 V2000
   -2.5094  -15.0551   19.0847 C   0  0  0  0  0  0  0  0  0  0  0  0
   -2.2016  -13.8187   20.4344 C   0  0  0  0  0  0  0  0  0  0  0  0
   -0.1265  -13.8453   20.3392 C   0  0  0  0  0  0  0  0  0  0  0  0
    1.6978  -13.1937   19.3811 C   0  0  0  0  0  0  0  0  0  0  0  0
    2.3586  -12.8704   21.1504 C   0  0  0  0  0  0  0  0  0  0  0  0
    2.7832  -11.6584   18.9177 N   0  0  0  0  0  0  0  0  0  0  0  0
    4.1245  -11.4971   17.8516 C   0  0  0  0  0  0  0  0  0  0  0  0
    4.6333  -12.3992   17.2880 O   0  0  0  0  0  0  0  0  0  0  0  0
    4.9910   -9.8458   17.3479 C   0  0  0  0  0  0  0  0  0  0  0  0
    6.3551   -9.1791   16.1716 N   0  0  0  0  0  0  0  0  0  0  0  0
    7.3297   -8.3525   15.8652 C   0  0  0  0  0  0  0  0  0  0  0  0
    8.4757   -9.2613   15.3866 C   0  0  0  0  0  0  0  0  0  0  0  0
    7.8356   -9.6947   14.3433 C   0  0  0  0  0  0  0  0  0  0  0  0
    6.5984   -9.4619   14.7358 N   0  0  0  0  0  0  0  0  0  0  0  0
   -3.7435  -14.1884   21.7482 N   0  0  0  0  0  0  0  0  0  0  0  0
   -5.3555  -14.9718   21.4674 C   0  0  0  0  0  0  0  0  0  0  0  0
   -5.7673  -15.5069   20.4440 O   0  0  0  0  0  0  0  0  0  0  0  0
   -6.4153  -14.8132   22.7293 C   0  0  0  0  0  0  0  0  0  0  0  0
   -7.5395  -15.8238   22.6895 C   0  0  0  0  0  0  0  0  0  0  0  0
   -8.8999  -15.6775   22.8763 C   0  0  0  0  0  0  0  0  0  0  0  0
   -9.4504  -16.9312   22.5661 C   0  0  0  0  0  0  0  0  0  0  0  0
   -8.5145  -17.8444   22.3159 N   0  0  0  0  0  0  0  0  0  0  0  0
   -7.3622  -17.1468   22.3713 N   0  0  0  0  0  0  0  0  0  0  0  0
   -1.7713  -15.8687   19.1507 H   0  0  0  0  0  0  0  0  0  0  0  0
   -3.5034  -15.5114   19.1425 H   0  0  0  0  0  0  0  0  0  0  0  0
   -2.3771  -14.5892   18.1244 H   0  0  0  0  0  0  0  0  0  0  0  0
   -1.8325  -13.7707   21.4886 H   0  0  0  0  0  0  0  0  0  0  0  0
   -0.3734  -13.1270   21.0923 H   0  0  0  0  0  0  0  0  0  0  0  0
   -0.2131  -14.9327   20.1204 H   0  0  0  0  0  0  0  0  0  0  0  0
    1.6472  -13.8534   18.5347 H   0  0  0  0  0  0  0  0  0  0  0  0
    2.3695  -11.7930   21.4087 H   0  0  0  0  0  0  0  0  0  0  0  0
    3.1875  -13.4618   21.5364 H   0  0  0  0  0  0  0  0  0  0  0  0
    1.5318  -13.1092   21.7556 H   0  0  0  0  0  0  0  0  0  0  0  0
    2.5890  -10.7724   19.3320 H   0  0  0  0  0  0  0  0  0  0  0  0
    4.5727  -10.0108   16.3770 H   0  0  0  0  0  0  0  0  0  0  0  0
    5.8563  -10.3171   17.7845 H   0  0  0  0  0  0  0  0  0  0  0  0
    7.4425   -7.4040   16.3443 H   0  0  0  0  0  0  0  0  0  0  0  0
    9.5425   -9.1358   15.5112 H   0  0  0  0  0  0  0  0  0  0  0  0
    8.0928  -10.1204   13.3848 H   0  0  0  0  0  0  0  0  0  0  0  0
   -3.6618  -13.9068   22.7238 H   0  0  0  0  0  0  0  0  0  0  0  0
   -6.0020  -14.6736   23.7328 H   0  0  0  0  0  0  0  0  0  0  0  0
   -6.8763  -13.8352   22.5185 H   0  0  0  0  0  0  0  0  0  0  0  0
   -9.4266  -14.7650   23.1168 H   0  0  0  0  0  0  0  0  0  0  0  0
  -10.4923  -17.2158   22.5117 H   0  0  0  0  0  0  0  0  0  0  0  0
   -6.4894  -17.6154   22.1454 H   0  0  0  0  0  0  0  0  0  0  0  0
  1  2  1  0
  2  3  1  0
  3  4  1  0
  4  5  1  0
  4  6  1  0
  6  7  1  0
  7  8  2  0
  7  9  1  0
  9 10  1  0
 10 11  1  0
 11 12  2  0
 12 13  1  0
 13 14  2  0
  2 15  1  0
 15 16  1  0
 16 17  2  0
 16 18  1  0
 18 19  1  0
 19 20  2  0
 20 21  1  0
 21 22  2  0
 22 23  1  0
 14 10  1  0
 23 19  1  0
  1 24  1  0
  1 25  1  0
  1 26  1  0
  2 27  1  0
  3 28  1  0
  3 29  1  0
  4 30  1  0
  5 31  1  0
  5 32  1  0
  5 33  1  0
  6 34  1  0
  9 35  1  0
  9 36  1  0
 11 37  1  0
 12 38  1  0
 13 39  1  0
 15 40  1  0
 18 41  1  0
 18 42  1  0
 20 43  1  0
 21 44  1  0
 23 45  1  0
M  END
>  <Energy>  (814) 
977.7276746442891

>  <compound_id>  (814) 
13505

>  <target_id>  (814) 
1

>  <reference_id>  (814) 
96

>  <inspiration_ids>  (814) 
[96, 122]

>  <energy_score>  (814) 
906.9580862198375

>  <distance_score>  (814) 
9.524346666939461

>  <path>  (814) 
/opt/xchem-fragalysis-2/maxwin/BulkDock/SCRATCH/511016/C13505-P96/C13505-P96.minimised.mol

>  <scratch_subdir>  (814) 
/opt/xchem-fragalysis-2/maxwin/BulkDock/SCRATCH/511016/C13505-P96

>  <fragmenstein_runtime>  (814) 
25.371931791305542

>  <fragmenstein_outcome>  (814) 
too moved

>  <fragmenstein_mode>  (814) 
expansion

>  <fragmenstein_error>  (814) 


$$$$
C13505-P122
     RDKit          3D

 45 46  0  0  0  0  0  0  0  0999 V2000
    0.1943  -16.1182   19.9110 C   0  0  0  0  0  0  0  0  0  0  0  0
    1.4584  -15.4823   20.8769 C   0  0  0  0  0  0  0  0  0  0  0  0
    3.0514  -13.7058   20.5886 C   0  0  0  0  0  0  0  0  0  0  0  0
    4.6931  -11.9556   20.4024 C   0  0  0  0  0  0  0  0  0  0  0  0
    5.7691  -12.8267   20.0532 C   0  0  0  0  0  0  0  0  0  0  0  0
    5.9368  -10.2786   19.3825 N   0  0  0  0  0  0  0  0  0  0  0  0
    6.4421   -8.1438   19.8320 C   0  0  0  0  0  0  0  0  0  0  0  0
    6.0640   -7.6809   20.9183 O   0  0  0  0  0  0  0  0  0  0  0  0
    7.4761   -6.7340   18.9636 C   0  0  0  0  0  0  0  0  0  0  0  0
    9.4712   -6.0965   19.2633 N   0  0  0  0  0  0  0  0  0  0  0  0
   10.7445   -5.2357   18.3260 C   0  0  0  0  0  0  0  0  0  0  0  0
   12.1001   -5.1172   19.1968 C   0  0  0  0  0  0  0  0  0  0  0  0
   11.6947   -5.4595   20.4915 C   0  0  0  0  0  0  0  0  0  0  0  0
   10.3732   -5.6652   20.6359 N   0  0  0  0  0  0  0  0  0  0  0  0
    0.2828  -17.3886   21.3048 N   0  0  0  0  0  0  0  0  0  0  0  0
    0.0100  -18.6392   22.9590 C   0  0  0  0  0  0  0  0  0  0  0  0
    0.6640  -18.5722   24.2432 O   0  0  0  0  0  0  0  0  0  0  0  0
   -1.3863  -20.0678   23.1143 C   0  0  0  0  0  0  0  0  0  0  0  0
   -1.8081  -20.5071   24.6800 C   0  0  0  0  0  0  0  0  0  0  0  0
   -1.2507  -20.3632   25.9334 C   0  0  0  0  0  0  0  0  0  0  0  0
   -2.1901  -20.9303   26.8248 C   0  0  0  0  0  0  0  0  0  0  0  0
   -3.2564  -21.4254   26.1968 N   0  0  0  0  0  0  0  0  0  0  0  0
   -2.9850  -21.2133   24.8998 N   0  0  0  0  0  0  0  0  0  0  0  0
   -0.5362  -15.4950   19.3237 H   0  0  0  0  0  0  0  0  0  0  0  0
    0.6165  -17.0070   19.4228 H   0  0  0  0  0  0  0  0  0  0  0  0
   -0.8225  -16.2749   20.4058 H   0  0  0  0  0  0  0  0  0  0  0  0
    0.7566  -15.0646   21.7008 H   0  0  0  0  0  0  0  0  0  0  0  0
    3.1530  -14.0991   19.4713 H   0  0  0  0  0  0  0  0  0  0  0  0
    3.3870  -13.9233   21.5659 H   0  0  0  0  0  0  0  0  0  0  0  0
    4.7294  -11.5713   21.4205 H   0  0  0  0  0  0  0  0  0  0  0  0
    5.9913  -12.3735   19.1280 H   0  0  0  0  0  0  0  0  0  0  0  0
    5.5287  -13.8049   19.7159 H   0  0  0  0  0  0  0  0  0  0  0  0
    6.6083  -12.7082   20.7216 H   0  0  0  0  0  0  0  0  0  0  0  0
    6.3708  -10.5496   18.5127 H   0  0  0  0  0  0  0  0  0  0  0  0
    7.0959   -6.4700   17.9473 H   0  0  0  0  0  0  0  0  0  0  0  0
    7.0490   -5.8149   19.4699 H   0  0  0  0  0  0  0  0  0  0  0  0
   10.7515   -4.9378   17.2721 H   0  0  0  0  0  0  0  0  0  0  0  0
   13.0264   -4.7367   18.7924 H   0  0  0  0  0  0  0  0  0  0  0  0
   12.2938   -5.4127   21.3894 H   0  0  0  0  0  0  0  0  0  0  0  0
   -0.2638  -17.7464   20.5146 H   0  0  0  0  0  0  0  0  0  0  0  0
   -2.2601  -20.3652   22.5869 H   0  0  0  0  0  0  0  0  0  0  0  0
   -0.7468  -20.9984   23.2468 H   0  0  0  0  0  0  0  0  0  0  0  0
   -0.3059  -19.8985   26.1838 H   0  0  0  0  0  0  0  0  0  0  0  0
   -2.1344  -20.9977   27.9040 H   0  0  0  0  0  0  0  0  0  0  0  0
   -3.6605  -21.5375   24.2144 H   0  0  0  0  0  0  0  0  0  0  0  0
  1  2  1  0
  2  3  1  0
  3  4  1  0
  4  5  1  0
  4  6  1  0
  6  7  1  0
  7  8  2  0
  7  9  1  0
  9 10  1  0
 10 11  1  0
 11 12  2  0
 12 13  1  0
 13 14  2  0
  2 15  1  0
 15 16  1  0
 16 17  2  0
 16 18  1  0
 18 19  1  0
 19 20  2  0
 20 21  1  0
 21 22  2  0
 22 23  1  0
 14 10  1  0
 23 19  1  0
  1 24  1  0
  1 25  1  0
  1 26  1  0
  2 27  1  0
  3 28  1  0
  3 29  1  0
  4 30  1  0
  5 31  1  0
  5 32  1  0
  5 33  1  0
  6 34  1  0
  9 35  1  0
  9 36  1  0
 11 37  1  0
 12 38  1  0
 13 39  1  0
 15 40  1  0
 18 41  1  0
 18 42  1  0
 20 43  1  0
 21 44  1  0
 23 45  1  0
M  END
>  <Energy>  (815) 
2593.3685147162519

>  <compound_id>  (815) 
13505

>  <target_id>  (815) 
1

>  <reference_id>  (815) 
122

>  <inspiration_ids>  (815) 
[96, 122]

>  <energy_score>  (815) 
2522.5989262917315

>  <distance_score>  (815) 
7.861188798967948

>  <path>  (815) 
/opt/xchem-fragalysis-2/maxwin/BulkDock/SCRATCH/511016/C13505-P122/C13505-P122.minimised.mol

>  <scratch_subdir>  (815) 
/opt/xchem-fragalysis-2/maxwin/BulkDock/SCRATCH/511016/C13505-P122

>  <fragmenstein_runtime>  (815) 
26.444897651672363

>  <fragmenstein_outcome>  (815) 
too moved

>  <fragmenstein_mode>  (815) 
expansion

>  <fragmenstein_error>  (815) 


$$$$
C13506-P96
     RDKit          3D

 42 43  0  0  0  0  0  0  0  0999 V2000
   -0.6941  -13.7927   10.9953 C   0  0  0  0  0  0  0  0  0  0  0  0
   -1.8567  -13.6315   12.0116 C   0  0  0  0  0  0  0  0  0  0  0  0
   -2.5029  -14.8999   12.3682 N   0  0  0  0  0  0  0  0  0  0  0  0
   -3.8381  -15.3720   12.1091 C   0  0  0  0  0  0  0  0  0  0  0  0
   -4.7852  -14.8064   11.6237 O   0  0  0  0  0  0  0  0  0  0  0  0
   -4.0752  -16.8873   12.4023 C   0  0  0  0  0  0  0  0  0  0  0  0
   -3.2265  -18.0271   12.2409 C   0  0  0  0  0  0  0  0  0  0  0  0
   -3.9543  -19.1415   12.5877 C   0  0  0  0  0  0  0  0  0  0  0  0
   -5.2189  -18.6868   12.7167 N   0  0  0  0  0  0  0  0  0  0  0  0
   -5.3200  -17.3529   12.6864 N   0  0  0  0  0  0  0  0  0  0  0  0
   -2.3635  -14.1184   14.2603 C   0  0  0  0  0  0  0  0  0  0  0  0
   -3.3104  -13.7020   15.4107 C   0  0  0  0  0  0  0  0  0  0  0  0
   -0.4176  -13.8331   15.0557 C   0  0  0  0  0  0  0  0  0  0  0  0
    0.6825  -13.0106   16.1621 N   0  0  0  0  0  0  0  0  0  0  0  0
    2.3660  -13.2481   16.4855 C   0  0  0  0  0  0  0  0  0  0  0  0
    3.1059  -14.1135   16.0666 O   0  0  0  0  0  0  0  0  0  0  0  0
    3.2974  -11.9174   17.5021 C   0  0  0  0  0  0  0  0  0  0  0  0
    4.7385  -10.7945   17.5551 C   0  0  0  0  0  0  0  0  0  0  0  0
    5.3901   -9.5908   17.0165 C   0  0  0  0  0  0  0  0  0  0  0  0
    6.6453   -9.3235   17.6798 C   0  0  0  0  0  0  0  0  0  0  0  0
    6.5488   -9.9766   18.8066 N   0  0  0  0  0  0  0  0  0  0  0  0
    5.2270  -10.3022   18.7332 N   0  0  0  0  0  0  0  0  0  0  0  0
   -1.0165  -13.5232    9.9802 H   0  0  0  0  0  0  0  0  0  0  0  0
    0.1204  -13.1061   11.2386 H   0  0  0  0  0  0  0  0  0  0  0  0
   -0.3323  -14.8217   10.9288 H   0  0  0  0  0  0  0  0  0  0  0  0
   -2.5971  -13.5499   11.1812 H   0  0  0  0  0  0  0  0  0  0  0  0
   -2.1064  -12.5777   12.0835 H   0  0  0  0  0  0  0  0  0  0  0  0
   -2.2164  -18.0546   11.8608 H   0  0  0  0  0  0  0  0  0  0  0  0
   -3.7075  -20.1930   12.6226 H   0  0  0  0  0  0  0  0  0  0  0  0
   -6.0671  -19.2299   12.8368 H   0  0  0  0  0  0  0  0  0  0  0  0
   -2.7988  -15.0574   14.5649 H   0  0  0  0  0  0  0  0  0  0  0  0
   -3.3545  -12.6502   15.6875 H   0  0  0  0  0  0  0  0  0  0  0  0
   -2.9211  -14.0931   16.3424 H   0  0  0  0  0  0  0  0  0  0  0  0
   -4.2786  -14.1550   15.2645 H   0  0  0  0  0  0  0  0  0  0  0  0
   -0.9754  -13.1724   15.7563 H   0  0  0  0  0  0  0  0  0  0  0  0
    0.3375  -14.5220   14.8969 H   0  0  0  0  0  0  0  0  0  0  0  0
    0.3479  -12.2973   16.6960 H   0  0  0  0  0  0  0  0  0  0  0  0
    2.9087  -11.3435   16.6870 H   0  0  0  0  0  0  0  0  0  0  0  0
    2.9025  -11.7372   18.5037 H   0  0  0  0  0  0  0  0  0  0  0  0
    5.2910   -8.9895   16.1314 H   0  0  0  0  0  0  0  0  0  0  0  0
    7.4921   -8.7067   17.4086 H   0  0  0  0  0  0  0  0  0  0  0  0
    4.6344   -9.6292   19.2006 H   0  0  0  0  0  0  0  0  0  0  0  0
  1  2  1  0
  2  3  1  0
  3  4  1  0
  4  5  2  0
  4  6  1  0
  6  7  1  0
  7  8  2  0
  8  9  1  0
  9 10  1  0
  3 11  1  0
 11 12  1  0
 11 13  1  0
 13 14  1  0
 14 15  1  0
 15 16  2  0
 15 17  1  0
 17 18  1  0
 18 19  2  0
 19 20  1  0
 20 21  2  0
 21 22  1  0
 10  6  2  0
 22 18  1  0
  1 23  1  0
  1 24  1  0
  1 25  1  0
  2 26  1  0
  2 27  1  0
  7 28  1  0
  8 29  1  0
  9 30  1  0
 11 31  1  0
 12 32  1  0
 12 33  1  0
 12 34  1  0
 13 35  1  0
 13 36  1  0
 14 37  1  0
 17 38  1  0
 17 39  1  0
 19 40  1  0
 20 41  1  0
 22 42  1  0
M  END
>  <Energy>  (816) 
714.32985536739398

>  <compound_id>  (816) 
13506

>  <target_id>  (816) 
1

>  <reference_id>  (816) 
96

>  <inspiration_ids>  (816) 
[96, 122]

>  <energy_score>  (816) 
599.256551862813

>  <distance_score>  (816) 
15.625870900669327

>  <path>  (816) 
/opt/xchem-fragalysis-2/maxwin/BulkDock/SCRATCH/511016/C13506-P96/C13506-P96.minimised.mol

>  <scratch_subdir>  (816) 
/opt/xchem-fragalysis-2/maxwin/BulkDock/SCRATCH/511016/C13506-P96

>  <fragmenstein_runtime>  (816) 
26.58777165412903

>  <fragmenstein_outcome>  (816) 
too moved

>  <fragmenstein_mode>  (816) 
expansion

>  <fragmenstein_error>  (816) 


$$$$
C13506-P122
     RDKit          3D

 42 43  0  0  0  0  0  0  0  0999 V2000
   -3.4808  -12.5394   20.1814 C   0  0  0  0  0  0  0  0  0  0  0  0
   -2.3329  -14.3417   20.4800 C   0  0  0  0  0  0  0  0  0  0  0  0
   -1.8985  -14.5056   21.6493 N   0  0  0  0  0  0  0  0  0  0  0  0
   -2.8225  -15.0735   23.2999 C   0  0  0  0  0  0  0  0  0  0  0  0
   -4.0229  -15.2357   23.2938 O   0  0  0  0  0  0  0  0  0  0  0  0
   -2.2422  -15.2703   24.8940 C   0  0  0  0  0  0  0  0  0  0  0  0
   -2.1187  -14.1674   26.0229 C   0  0  0  0  0  0  0  0  0  0  0  0
   -2.5112  -14.7196   27.2404 C   0  0  0  0  0  0  0  0  0  0  0  0
   -3.0222  -15.9485   26.9423 N   0  0  0  0  0  0  0  0  0  0  0  0
   -2.9381  -16.2953   25.6273 N   0  0  0  0  0  0  0  0  0  0  0  0
   -1.5073  -12.5052   21.0099 C   0  0  0  0  0  0  0  0  0  0  0  0
   -1.5804  -11.9838   19.2443 C   0  0  0  0  0  0  0  0  0  0  0  0
   -0.7391  -10.7571   21.8339 C   0  0  0  0  0  0  0  0  0  0  0  0
    0.1708  -10.1623   20.9468 N   0  0  0  0  0  0  0  0  0  0  0  0
    0.6753   -8.7964   20.8325 C   0  0  0  0  0  0  0  0  0  0  0  0
    0.4998   -7.8464   21.5392 O   0  0  0  0  0  0  0  0  0  0  0  0
    1.6764   -8.6978   19.0672 C   0  0  0  0  0  0  0  0  0  0  0  0
    3.3319   -8.4456   18.1067 C   0  0  0  0  0  0  0  0  0  0  0  0
    4.9521   -8.9301   18.4397 C   0  0  0  0  0  0  0  0  0  0  0  0
    5.9823   -7.9399   18.4786 C   0  0  0  0  0  0  0  0  0  0  0  0
    5.5986   -6.7921   18.0816 N   0  0  0  0  0  0  0  0  0  0  0  0
    4.3242   -7.0107   17.8054 N   0  0  0  0  0  0  0  0  0  0  0  0
   -3.4948  -12.1150   19.1492 H   0  0  0  0  0  0  0  0  0  0  0  0
   -3.5157  -11.5470   20.6798 H   0  0  0  0  0  0  0  0  0  0  0  0
   -4.5165  -12.5799   19.9425 H   0  0  0  0  0  0  0  0  0  0  0  0
   -1.7560  -14.6879   19.5895 H   0  0  0  0  0  0  0  0  0  0  0  0
   -2.8874  -15.3138   20.3555 H   0  0  0  0  0  0  0  0  0  0  0  0
   -1.8645  -13.1334   25.8799 H   0  0  0  0  0  0  0  0  0  0  0  0
   -2.5672  -14.3077   28.2375 H   0  0  0  0  0  0  0  0  0  0  0  0
   -3.4681  -16.6024   27.5769 H   0  0  0  0  0  0  0  0  0  0  0  0
   -2.2763  -11.9287   21.4348 H   0  0  0  0  0  0  0  0  0  0  0  0
   -2.0975  -12.6448   18.5305 H   0  0  0  0  0  0  0  0  0  0  0  0
   -1.9160  -10.9385   19.1789 H   0  0  0  0  0  0  0  0  0  0  0  0
   -0.7531  -12.1394   18.6153 H   0  0  0  0  0  0  0  0  0  0  0  0
   -1.5271  -10.0062   21.9392 H   0  0  0  0  0  0  0  0  0  0  0  0
   -0.0178  -11.0117   22.5679 H   0  0  0  0  0  0  0  0  0  0  0  0
    0.5493  -10.6745   20.2931 H   0  0  0  0  0  0  0  0  0  0  0  0
    0.9171   -8.5856   18.2801 H   0  0  0  0  0  0  0  0  0  0  0  0
    2.0025   -9.6918   18.9631 H   0  0  0  0  0  0  0  0  0  0  0  0
    5.4256   -9.8904   18.5951 H   0  0  0  0  0  0  0  0  0  0  0  0
    6.9630   -8.1202   18.8803 H   0  0  0  0  0  0  0  0  0  0  0  0
    4.2943   -6.6510   16.8656 H   0  0  0  0  0  0  0  0  0  0  0  0
  1  2  1  0
  2  3  1  0
  3  4  1  0
  4  5  2  0
  4  6  1  0
  6  7  1  0
  7  8  2  0
  8  9  1  0
  9 10  1  0
  3 11  1  0
 11 12  1  0
 11 13  1  0
 13 14  1  0
 14 15  1  0
 15 16  2  0
 15 17  1  0
 17 18  1  0
 18 19  2  0
 19 20  1  0
 20 21  2  0
 21 22  1  0
 10  6  2  0
 22 18  1  0
  1 23  1  0
  1 24  1  0
  1 25  1  0
  2 26  1  0
  2 27  1  0
  7 28  1  0
  8 29  1  0
  9 30  1  0
 11 31  1  0
 12 32  1  0
 12 33  1  0
 12 34  1  0
 13 35  1  0
 13 36  1  0
 14 37  1  0
 17 38  1  0
 17 39  1  0
 19 40  1  0
 20 41  1  0
 22 42  1  0
M  END
>  <Energy>  (817) 
1178.3772259288844

>  <compound_id>  (817) 
13506

>  <target_id>  (817) 
1

>  <reference_id>  (817) 
122

>  <inspiration_ids>  (817) 
[96, 122]

>  <energy_score>  (817) 
1063.3039224243134

>  <distance_score>  (817) 
11.505754653216844

>  <path>  (817) 
/opt/xchem-fragalysis-2/maxwin/BulkDock/SCRATCH/511016/C13506-P122/C13506-P122.minimised.mol

>  <scratch_subdir>  (817) 
/opt/xchem-fragalysis-2/maxwin/BulkDock/SCRATCH/511016/C13506-P122

>  <fragmenstein_runtime>  (817) 
30.08844017982483

>  <fragmenstein_outcome>  (817) 
too moved

>  <fragmenstein_mode>  (817) 
expansion

>  <fragmenstein_error>  (817) 


$$$$
C13507-P96
     RDKit          3D

 45 46  0  0  0  0  0  0  0  0999 V2000
    1.6756  -18.4050   21.0091 C   0  0  0  0  0  0  0  0  0  0  0  0
    0.0421  -18.4256   22.2830 C   0  0  0  0  0  0  0  0  0  0  0  0
   -0.0975  -17.2839   23.0555 N   0  0  0  0  0  0  0  0  0  0  0  0
   -1.3599  -16.8584   24.6732 C   0  0  0  0  0  0  0  0  0  0  0  0
   -2.1657  -17.7262   24.9125 O   0  0  0  0  0  0  0  0  0  0  0  0
   -1.4654  -15.8009   25.7537 C   0  0  0  0  0  0  0  0  0  0  0  0
   -2.7226  -15.0428   26.0824 C   0  0  0  0  0  0  0  0  0  0  0  0
   -2.8843  -14.9610   27.4391 C   0  0  0  0  0  0  0  0  0  0  0  0
   -1.8388  -15.6552   27.9212 N   0  0  0  0  0  0  0  0  0  0  0  0
   -1.5673  -15.9516   29.3067 C   0  0  0  0  0  0  0  0  0  0  0  0
   -0.9688  -16.0633   26.9921 N   0  0  0  0  0  0  0  0  0  0  0  0
   -0.4256  -16.8036   20.9695 C   0  0  0  0  0  0  0  0  0  0  0  0
   -1.6653  -17.1633   19.6777 C   0  0  0  0  0  0  0  0  0  0  0  0
    0.0961  -15.3695   19.5163 C   0  0  0  0  0  0  0  0  0  0  0  0
    1.2987  -13.8886   18.9492 N   0  0  0  0  0  0  0  0  0  0  0  0
    2.0030  -13.5002   17.3571 C   0  0  0  0  0  0  0  0  0  0  0  0
    1.8411  -14.1099   16.3295 O   0  0  0  0  0  0  0  0  0  0  0  0
    3.2433  -11.9459   17.5756 C   0  0  0  0  0  0  0  0  0  0  0  0
    4.5297  -10.7130   17.2862 C   0  0  0  0  0  0  0  0  0  0  0  0
    5.5552  -10.1693   18.0889 C   0  0  0  0  0  0  0  0  0  0  0  0
    6.2891   -9.1773   17.3622 C   0  0  0  0  0  0  0  0  0  0  0  0
    5.5861   -8.7939   16.2861 N   0  0  0  0  0  0  0  0  0  0  0  0
    4.6220   -9.7873   16.1750 N   0  0  0  0  0  0  0  0  0  0  0  0
    1.3066  -17.6908   20.3341 H   0  0  0  0  0  0  0  0  0  0  0  0
    2.6307  -18.0747   21.4670 H   0  0  0  0  0  0  0  0  0  0  0  0
    1.9191  -18.9065   20.0653 H   0  0  0  0  0  0  0  0  0  0  0  0
    0.0621  -19.4322   22.7384 H   0  0  0  0  0  0  0  0  0  0  0  0
   -1.0148  -18.5409   22.0249 H   0  0  0  0  0  0  0  0  0  0  0  0
   -3.4313  -14.6816   25.3609 H   0  0  0  0  0  0  0  0  0  0  0  0
   -3.6622  -14.5417   28.0595 H   0  0  0  0  0  0  0  0  0  0  0  0
   -1.4867  -17.0361   29.4178 H   0  0  0  0  0  0  0  0  0  0  0  0
   -0.6289  -15.4656   29.5857 H   0  0  0  0  0  0  0  0  0  0  0  0
   -2.3832  -15.5736   29.9281 H   0  0  0  0  0  0  0  0  0  0  0  0
   -0.8914  -15.8924   20.9839 H   0  0  0  0  0  0  0  0  0  0  0  0
   -1.0778  -17.2618   18.7694 H   0  0  0  0  0  0  0  0  0  0  0  0
   -2.3639  -17.9797   19.5299 H   0  0  0  0  0  0  0  0  0  0  0  0
   -2.2784  -16.3022   19.3951 H   0  0  0  0  0  0  0  0  0  0  0  0
   -0.3495  -14.6329   20.1704 H   0  0  0  0  0  0  0  0  0  0  0  0
   -0.5900  -15.4243   18.7212 H   0  0  0  0  0  0  0  0  0  0  0  0
    1.5406  -13.1505   19.6151 H   0  0  0  0  0  0  0  0  0  0  0  0
    4.1047  -12.5839   17.2806 H   0  0  0  0  0  0  0  0  0  0  0  0
    3.1560  -11.7012   18.6430 H   0  0  0  0  0  0  0  0  0  0  0  0
    5.8604  -10.4842   19.0405 H   0  0  0  0  0  0  0  0  0  0  0  0
    7.2146   -8.6768   17.6141 H   0  0  0  0  0  0  0  0  0  0  0  0
    3.8983   -9.7061   15.4663 H   0  0  0  0  0  0  0  0  0  0  0  0
  1  2  1  0
  2  3  1  0
  3  4  1  0
  4  5  2  0
  4  6  1  0
  6  7  1  0
  7  8  2  0
  8  9  1  0
  9 10  1  0
  9 11  1  0
  3 12  1  0
 12 13  1  0
 12 14  1  0
 14 15  1  0
 15 16  1  0
 16 17  2  0
 16 18  1  0
 18 19  1  0
 19 20  2  0
 20 21  1  0
 21 22  2  0
 22 23  1  0
 11  6  2  0
 23 19  1  0
  1 24  1  0
  1 25  1  0
  1 26  1  0
  2 27  1  0
  2 28  1  0
  7 29  1  0
  8 30  1  0
 10 31  1  0
 10 32  1  0
 10 33  1  0
 12 34  1  0
 13 35  1  0
 13 36  1  0
 13 37  1  0
 14 38  1  0
 14 39  1  0
 15 40  1  0
 18 41  1  0
 18 42  1  0
 20 43  1  0
 21 44  1  0
 23 45  1  0
M  END
>  <Energy>  (818) 
1194.2662258927871

>  <compound_id>  (818) 
13507

>  <target_id>  (818) 
1

>  <reference_id>  (818) 
96

>  <inspiration_ids>  (818) 
[96, 122]

>  <energy_score>  (818) 
1087.6668469979445

>  <distance_score>  (818) 
11.687275407779332

>  <path>  (818) 
/opt/xchem-fragalysis-2/maxwin/BulkDock/SCRATCH/511016/C13507-P96/C13507-P96.minimised.mol

>  <scratch_subdir>  (818) 
/opt/xchem-fragalysis-2/maxwin/BulkDock/SCRATCH/511016/C13507-P96

>  <fragmenstein_runtime>  (818) 
21.663129091262817

>  <fragmenstein_outcome>  (818) 
too moved

>  <fragmenstein_mode>  (818) 
expansion

>  <fragmenstein_error>  (818) 


$$$$
C13507-P122
     RDKit          3D

 45 46  0  0  0  0  0  0  0  0999 V2000
   -0.0612  -16.1975   21.3482 C   0  0  0  0  0  0  0  0  0  0  0  0
    0.0672  -14.5624   22.4869 C   0  0  0  0  0  0  0  0  0  0  0  0
   -0.6184  -14.0190   23.7784 N   0  0  0  0  0  0  0  0  0  0  0  0
   -1.7346  -14.8781   24.8158 C   0  0  0  0  0  0  0  0  0  0  0  0
   -2.0844  -16.0004   24.8031 O   0  0  0  0  0  0  0  0  0  0  0  0
   -2.5183  -14.0815   25.9524 C   0  0  0  0  0  0  0  0  0  0  0  0
   -3.1608  -14.7987   27.0405 C   0  0  0  0  0  0  0  0  0  0  0  0
   -4.0186  -13.9211   27.6432 C   0  0  0  0  0  0  0  0  0  0  0  0
   -3.8713  -12.7653   26.9460 N   0  0  0  0  0  0  0  0  0  0  0  0
   -4.6277  -11.5530   27.1430 C   0  0  0  0  0  0  0  0  0  0  0  0
   -2.9238  -12.8001   25.9817 N   0  0  0  0  0  0  0  0  0  0  0  0
    1.3321  -13.7889   24.0978 C   0  0  0  0  0  0  0  0  0  0  0  0
    1.1629  -13.3855   26.0140 C   0  0  0  0  0  0  0  0  0  0  0  0
    2.7732  -12.6172   23.1086 C   0  0  0  0  0  0  0  0  0  0  0  0
    3.2963  -10.9536   22.8888 N   0  0  0  0  0  0  0  0  0  0  0  0
    4.8054  -10.2451   23.1086 C   0  0  0  0  0  0  0  0  0  0  0  0
    5.8809  -10.7880   23.3653 O   0  0  0  0  0  0  0  0  0  0  0  0
    4.4783   -8.2291   23.0476 C   0  0  0  0  0  0  0  0  0  0  0  0
    5.2410   -7.3462   24.3995 C   0  0  0  0  0  0  0  0  0  0  0  0
    6.5511   -6.8624   24.4924 C   0  0  0  0  0  0  0  0  0  0  0  0
    6.5615   -6.0128   25.6007 C   0  0  0  0  0  0  0  0  0  0  0  0
    5.3604   -5.9317   26.1742 N   0  0  0  0  0  0  0  0  0  0  0  0
    4.5873   -6.7505   25.4348 N   0  0  0  0  0  0  0  0  0  0  0  0
   -0.9348  -16.1994   20.6411 H   0  0  0  0  0  0  0  0  0  0  0  0
    0.7382  -16.1668   20.6207 H   0  0  0  0  0  0  0  0  0  0  0  0
   -0.1450  -17.2237   21.6772 H   0  0  0  0  0  0  0  0  0  0  0  0
   -0.9541  -14.8832   22.3994 H   0  0  0  0  0  0  0  0  0  0  0  0
   -0.1764  -13.6920   22.0266 H   0  0  0  0  0  0  0  0  0  0  0  0
   -3.0466  -15.8463   27.2755 H   0  0  0  0  0  0  0  0  0  0  0  0
   -4.7251  -14.0347   28.4529 H   0  0  0  0  0  0  0  0  0  0  0  0
   -5.0905  -11.5714   28.1329 H   0  0  0  0  0  0  0  0  0  0  0  0
   -3.9509  -10.6980   27.0682 H   0  0  0  0  0  0  0  0  0  0  0  0
   -5.3962  -11.5052   26.3684 H   0  0  0  0  0  0  0  0  0  0  0  0
    1.7177  -12.7978   24.4857 H   0  0  0  0  0  0  0  0  0  0  0  0
    1.2340  -12.3011   26.1731 H   0  0  0  0  0  0  0  0  0  0  0  0
    0.1616  -13.3236   26.4689 H   0  0  0  0  0  0  0  0  0  0  0  0
    1.8446  -13.8835   26.6956 H   0  0  0  0  0  0  0  0  0  0  0  0
    3.2628  -13.0392   22.2421 H   0  0  0  0  0  0  0  0  0  0  0  0
    1.9126  -11.9550   22.9572 H   0  0  0  0  0  0  0  0  0  0  0  0
    2.6337  -10.2515   22.7098 H   0  0  0  0  0  0  0  0  0  0  0  0
    5.0696   -7.6424   22.3804 H   0  0  0  0  0  0  0  0  0  0  0  0
    3.3911   -8.1330   22.9890 H   0  0  0  0  0  0  0  0  0  0  0  0
    7.3699   -7.0660   23.8193 H   0  0  0  0  0  0  0  0  0  0  0  0
    7.3827   -5.4387   26.0081 H   0  0  0  0  0  0  0  0  0  0  0  0
    3.6020   -6.7926   25.6608 H   0  0  0  0  0  0  0  0  0  0  0  0
  1  2  1  0
  2  3  1  0
  3  4  1  0
  4  5  2  0
  4  6  1  0
  6  7  1  0
  7  8  2  0
  8  9  1  0
  9 10  1  0
  9 11  1  0
  3 12  1  0
 12 13  1  0
 12 14  1  0
 14 15  1  0
 15 16  1  0
 16 17  2  0
 16 18  1  0
 18 19  1  0
 19 20  2  0
 20 21  1  0
 21 22  2  0
 22 23  1  0
 11  6  2  0
 23 19  1  0
  1 24  1  0
  1 25  1  0
  1 26  1  0
  2 27  1  0
  2 28  1  0
  7 29  1  0
  8 30  1  0
 10 31  1  0
 10 32  1  0
 10 33  1  0
 12 34  1  0
 13 35  1  0
 13 36  1  0
 13 37  1  0
 14 38  1  0
 14 39  1  0
 15 40  1  0
 18 41  1  0
 18 42  1  0
 20 43  1  0
 21 44  1  0
 23 45  1  0
M  END
>  <Energy>  (819) 
792.36179906582299

>  <compound_id>  (819) 
13507

>  <target_id>  (819) 
1

>  <reference_id>  (819) 
122

>  <inspiration_ids>  (819) 
[96, 122]

>  <energy_score>  (819) 
685.7624201709798

>  <distance_score>  (819) 
12.674653547245857

>  <path>  (819) 
/opt/xchem-fragalysis-2/maxwin/BulkDock/SCRATCH/511016/C13507-P122/C13507-P122.minimised.mol

>  <scratch_subdir>  (819) 
/opt/xchem-fragalysis-2/maxwin/BulkDock/SCRATCH/511016/C13507-P122

>  <fragmenstein_runtime>  (819) 
37.252113580703735

>  <fragmenstein_outcome>  (819) 
too moved

>  <fragmenstein_mode>  (819) 
expansion

>  <fragmenstein_error>  (819) 


$$$$
C13508-P96
     RDKit          3D

 33 35  0  0  0  0  0  0  0  0999 V2000
   -2.6257  -17.1543   19.2450 C   0  0  0  0  0  0  0  0  0  0  0  0
   -2.0820  -15.9187   18.8544 C   0  0  0  0  0  0  0  0  0  0  0  0
   -0.7162  -15.8494   19.2401 C   0  0  0  0  0  0  0  0  0  0  0  0
    0.6440  -14.6125   18.9022 C   0  0  0  0  0  0  0  0  0  0  0  0
    1.8764  -13.5592   17.0613 S   0  0  0  0  0  0  0  0  0  0  0  0
    3.4962  -11.7842   17.4571 C   0  0  0  0  0  0  0  0  0  0  0  0
    4.5519  -10.3299   16.6700 C   0  0  0  0  0  0  0  0  0  0  0  0
    5.2895  -10.7308   15.5654 C   0  0  0  0  0  0  0  0  0  0  0  0
    6.4613  -10.0479   15.6856 C   0  0  0  0  0  0  0  0  0  0  0  0
    6.4795   -9.1978   16.6857 N   0  0  0  0  0  0  0  0  0  0  0  0
    5.2096   -8.6738   17.0991 N   0  0  0  0  0  0  0  0  0  0  0  0
    5.3434   -6.5548   16.9895 C   0  0  0  0  0  0  0  0  0  0  0  0
    5.4476   -5.2007   16.0168 C   0  0  0  0  0  0  0  0  0  0  0  0
    7.5512   -4.6488   16.0350 C   0  0  0  0  0  0  0  0  0  0  0  0
    7.5247   -6.3529   16.7972 C   0  0  0  0  0  0  0  0  0  0  0  0
   -0.6700  -16.9824   20.0387 N   0  0  0  0  0  0  0  0  0  0  0  0
   -1.7750  -17.7844   20.0422 N   0  0  0  0  0  0  0  0  0  0  0  0
   -3.6080  -17.5641   19.0569 H   0  0  0  0  0  0  0  0  0  0  0  0
   -2.5830  -15.1500   18.3097 H   0  0  0  0  0  0  0  0  0  0  0  0
    0.4049  -13.8716   19.5722 H   0  0  0  0  0  0  0  0  0  0  0  0
    0.1526  -15.0127   18.0259 H   0  0  0  0  0  0  0  0  0  0  0  0
    4.3564  -12.4527   17.2857 H   0  0  0  0  0  0  0  0  0  0  0  0
    3.4139  -11.4993   18.5065 H   0  0  0  0  0  0  0  0  0  0  0  0
    5.1033  -11.6102   14.9662 H   0  0  0  0  0  0  0  0  0  0  0  0
    7.3833  -10.2095   15.1425 H   0  0  0  0  0  0  0  0  0  0  0  0
    4.6649   -6.2359   17.8051 H   0  0  0  0  0  0  0  0  0  0  0  0
    4.7995   -4.4055   16.4643 H   0  0  0  0  0  0  0  0  0  0  0  0
    4.9128   -5.3005   15.0520 H   0  0  0  0  0  0  0  0  0  0  0  0
    8.2326   -4.1626   15.3101 H   0  0  0  0  0  0  0  0  0  0  0  0
    7.9646   -3.7973   16.6640 H   0  0  0  0  0  0  0  0  0  0  0  0
    7.6093   -7.2881   16.2826 H   0  0  0  0  0  0  0  0  0  0  0  0
    8.3832   -6.4657   17.4843 H   0  0  0  0  0  0  0  0  0  0  0  0
    0.1219  -17.3478   20.5570 H   0  0  0  0  0  0  0  0  0  0  0  0
  1  2  1  0
  2  3  2  0
  3  4  1  0
  4  5  1  0
  5  6  1  0
  6  7  1  0
  7  8  2  0
  8  9  1  0
  9 10  2  0
 10 11  1  0
 11 12  1  0
 12 13  1  0
 13 14  1  0
 14 15  1  0
  3 16  1  0
 16 17  1  0
 17  1  2  0
 11  7  1  0
 15 12  1  0
  1 18  1  0
  2 19  1  0
  4 20  1  0
  4 21  1  0
  6 22  1  0
  6 23  1  0
  8 24  1  0
  9 25  1  0
 12 26  1  0
 13 27  1  0
 13 28  1  0
 14 29  1  0
 14 30  1  0
 15 31  1  0
 15 32  1  0
 16 33  1  0
M  END
>  <Energy>  (820) 
909.91562587176759

>  <compound_id>  (820) 
13508

>  <target_id>  (820) 
1

>  <reference_id>  (820) 
96

>  <inspiration_ids>  (820) 
[96, 122]

>  <energy_score>  (820) 
865.6817913921143

>  <distance_score>  (820) 
13.44522882195703

>  <path>  (820) 
/opt/xchem-fragalysis-2/maxwin/BulkDock/SCRATCH/511016/C13508-P96/C13508-P96.minimised.mol

>  <scratch_subdir>  (820) 
/opt/xchem-fragalysis-2/maxwin/BulkDock/SCRATCH/511016/C13508-P96

>  <fragmenstein_runtime>  (820) 
15.122713088989258

>  <fragmenstein_outcome>  (820) 
too moved

>  <fragmenstein_mode>  (820) 
expansion

>  <fragmenstein_error>  (820) 


$$$$
C13508-P122
     RDKit          3D

 33 35  0  0  0  0  0  0  0  0999 V2000
    7.4480  -16.0942   19.9847 C   0  0  0  0  0  0  0  0  0  0  0  0
    8.0066  -14.8183   19.7908 C   0  0  0  0  0  0  0  0  0  0  0  0
    7.2258  -14.1931   18.8318 C   0  0  0  0  0  0  0  0  0  0  0  0
    7.3286  -12.8421   18.1419 C   0  0  0  0  0  0  0  0  0  0  0  0
    9.0426  -12.6638   17.1535 S   0  0  0  0  0  0  0  0  0  0  0  0
    9.1479  -10.7871   16.6328 C   0  0  0  0  0  0  0  0  0  0  0  0
   10.3856  -10.3067   15.7576 C   0  0  0  0  0  0  0  0  0  0  0  0
   10.9253  -11.2366   14.8614 C   0  0  0  0  0  0  0  0  0  0  0  0
   12.1813  -11.4747   15.4280 C   0  0  0  0  0  0  0  0  0  0  0  0
   12.4135  -10.6480   16.4440 N   0  0  0  0  0  0  0  0  0  0  0  0
   11.6965   -9.4790   16.0958 N   0  0  0  0  0  0  0  0  0  0  0  0
   12.3194   -7.5447   15.9944 C   0  0  0  0  0  0  0  0  0  0  0  0
   11.2081   -6.5821   15.7919 C   0  0  0  0  0  0  0  0  0  0  0  0
   11.6335   -5.1672   16.2793 C   0  0  0  0  0  0  0  0  0  0  0  0
   12.8541   -5.8473   16.6577 C   0  0  0  0  0  0  0  0  0  0  0  0
    6.1613  -15.0500   18.6844 N   0  0  0  0  0  0  0  0  0  0  0  0
    6.3797  -16.2760   19.2172 N   0  0  0  0  0  0  0  0  0  0  0  0
    7.7985  -16.9007   20.6144 H   0  0  0  0  0  0  0  0  0  0  0  0
    8.9056  -14.4175   20.2379 H   0  0  0  0  0  0  0  0  0  0  0  0
    6.5337  -12.7056   17.4042 H   0  0  0  0  0  0  0  0  0  0  0  0
    7.3098  -12.0352   18.8795 H   0  0  0  0  0  0  0  0  0  0  0  0
    8.2838  -10.7016   15.9805 H   0  0  0  0  0  0  0  0  0  0  0  0
    9.0133  -10.3000   17.5832 H   0  0  0  0  0  0  0  0  0  0  0  0
   10.3817  -11.9529   14.2608 H   0  0  0  0  0  0  0  0  0  0  0  0
   12.8658  -12.2929   15.2513 H   0  0  0  0  0  0  0  0  0  0  0  0
   13.1119   -7.7156   15.3062 H   0  0  0  0  0  0  0  0  0  0  0  0
   10.2590   -7.1578   15.6437 H   0  0  0  0  0  0  0  0  0  0  0  0
   10.8689   -6.4289   14.8226 H   0  0  0  0  0  0  0  0  0  0  0  0
   11.7325   -4.3445   15.5581 H   0  0  0  0  0  0  0  0  0  0  0  0
   11.1612   -4.6942   17.1335 H   0  0  0  0  0  0  0  0  0  0  0  0
   13.0574   -5.5054   17.6945 H   0  0  0  0  0  0  0  0  0  0  0  0
   13.6735   -5.3640   16.0922 H   0  0  0  0  0  0  0  0  0  0  0  0
    5.2441  -14.8553   18.2941 H   0  0  0  0  0  0  0  0  0  0  0  0
  1  2  1  0
  2  3  2  0
  3  4  1  0
  4  5  1  0
  5  6  1  0
  6  7  1  0
  7  8  2  0
  8  9  1  0
  9 10  2  0
 10 11  1  0
 11 12  1  0
 12 13  1  0
 13 14  1  0
 14 15  1  0
  3 16  1  0
 16 17  1  0
 17  1  2  0
 11  7  1  0
 15 12  1  0
  1 18  1  0
  2 19  1  0
  4 20  1  0
  4 21  1  0
  6 22  1  0
  6 23  1  0
  8 24  1  0
  9 25  1  0
 12 26  1  0
 13 27  1  0
 13 28  1  0
 14 29  1  0
 14 30  1  0
 15 31  1  0
 15 32  1  0
 16 33  1  0
M  END
>  <Energy>  (821) 
328.23071991735429

>  <compound_id>  (821) 
13508

>  <target_id>  (821) 
1

>  <reference_id>  (821) 
122

>  <inspiration_ids>  (821) 
[96, 122]

>  <energy_score>  (821) 
283.99688543770907

>  <distance_score>  (821) 
17.225127299651785

>  <path>  (821) 
/opt/xchem-fragalysis-2/maxwin/BulkDock/SCRATCH/511016/C13508-P122/C13508-P122.minimised.mol

>  <scratch_subdir>  (821) 
/opt/xchem-fragalysis-2/maxwin/BulkDock/SCRATCH/511016/C13508-P122

>  <fragmenstein_runtime>  (821) 
20.669352293014526

>  <fragmenstein_outcome>  (821) 
too moved

>  <fragmenstein_mode>  (821) 
expansion

>  <fragmenstein_error>  (821) 


$$$$
C13509-P96
     RDKit          3D

 39 40  0  0  0  0  0  0  0  0999 V2000
    2.9712  -10.6539   28.4938 C   0  0  0  0  0  0  0  0  0  0  0  0
    2.0062   -9.5055   28.3154 N   0  0  0  0  0  0  0  0  0  0  0  0
    2.7643   -8.9706   29.4842 C   0  0  0  0  0  0  0  0  0  0  0  0
    0.6591  -10.0000   28.2178 C   0  0  0  0  0  0  0  0  0  0  0  0
   -0.1661  -10.1904   29.0711 O   0  0  0  0  0  0  0  0  0  0  0  0
    0.3563  -10.2019   26.7362 C   0  0  0  0  0  0  0  0  0  0  0  0
   -0.9739  -10.7100   26.4557 N   0  0  0  0  0  0  0  0  0  0  0  0
   -1.5203  -11.8771   26.9194 C   0  0  0  0  0  0  0  0  0  0  0  0
   -2.6884  -12.0965   26.2179 C   0  0  0  0  0  0  0  0  0  0  0  0
   -3.4779  -13.2276   26.3455 N   0  0  0  0  0  0  0  0  0  0  0  0
   -4.6519  -13.7193   25.5070 C   0  0  0  0  0  0  0  0  0  0  0  0
   -5.2062  -13.2067   24.6024 O   0  0  0  0  0  0  0  0  0  0  0  0
   -4.8800  -15.0775   26.1537 N   0  0  0  0  0  0  0  0  0  0  0  0
   -5.7286  -16.1107   25.8042 N   0  0  0  0  0  0  0  0  0  0  0  0
   -5.5562  -17.5397   25.8822 C   0  0  0  0  0  0  0  0  0  0  0  0
   -4.6059  -18.1933   26.1950 O   0  0  0  0  0  0  0  0  0  0  0  0
   -6.8253  -18.3674   25.5915 C   0  0  0  0  0  0  0  0  0  0  0  0
   -7.3614  -19.7693   26.8699 C   0  0  0  0  0  0  0  0  0  0  0  0
   -7.0796  -21.4933   25.7140 C   0  0  0  0  0  0  0  0  0  0  0  0
   -7.6026  -21.0697   23.8705 N   0  0  0  0  0  0  0  0  0  0  0  0
   -7.3593  -19.0158   23.6871 N   0  0  0  0  0  0  0  0  0  0  0  0
   -2.7722  -10.9646   25.3780 C   0  0  0  0  0  0  0  0  0  0  0  0
   -1.7529  -10.1056   25.5411 N   0  0  0  0  0  0  0  0  0  0  0  0
    2.7559  -11.3566   27.6763 H   0  0  0  0  0  0  0  0  0  0  0  0
    4.0277  -10.3957   28.3338 H   0  0  0  0  0  0  0  0  0  0  0  0
    2.7879  -11.2567   29.3971 H   0  0  0  0  0  0  0  0  0  0  0  0
    2.2552   -8.0195   29.6986 H   0  0  0  0  0  0  0  0  0  0  0  0
    2.6323   -9.5305   30.4224 H   0  0  0  0  0  0  0  0  0  0  0  0
    3.7990   -8.6712   29.2641 H   0  0  0  0  0  0  0  0  0  0  0  0
    1.0460  -10.9349   26.3103 H   0  0  0  0  0  0  0  0  0  0  0  0
    0.4608   -9.2402   26.2230 H   0  0  0  0  0  0  0  0  0  0  0  0
   -1.0133  -12.4649   27.6713 H   0  0  0  0  0  0  0  0  0  0  0  0
   -3.1999  -13.9480   26.9847 H   0  0  0  0  0  0  0  0  0  0  0  0
   -4.2835  -15.1689   26.9603 H   0  0  0  0  0  0  0  0  0  0  0  0
   -6.6476  -15.9077   25.4204 H   0  0  0  0  0  0  0  0  0  0  0  0
   -6.6160  -19.8297   27.6559 H   0  0  0  0  0  0  0  0  0  0  0  0
   -6.2233  -22.1659   25.7963 H   0  0  0  0  0  0  0  0  0  0  0  0
   -6.7942  -18.7202   22.8887 H   0  0  0  0  0  0  0  0  0  0  0  0
   -3.5470  -10.7397   24.6567 H   0  0  0  0  0  0  0  0  0  0  0  0
  1  2  1  0
  2  3  1  0
  2  4  1  0
  4  5  2  0
  4  6  1  0
  6  7  1  0
  7  8  1  0
  8  9  2  0
  9 10  1  0
 10 11  1  0
 11 12  2  0
 11 13  1  0
 13 14  1  0
 14 15  1  0
 15 16  2  0
 15 17  1  0
 17 18  2  0
 18 19  1  0
 19 20  2  0
 20 21  1  0
  9 22  1  0
 22 23  2  0
 23  7  1  0
 21 17  1  0
  1 24  1  0
  1 25  1  0
  1 26  1  0
  3 27  1  0
  3 28  1  0
  3 29  1  0
  6 30  1  0
  6 31  1  0
  8 32  1  0
 10 33  1  0
 13 34  1  0
 14 35  1  0
 18 36  1  0
 19 37  1  0
 21 38  1  0
 22 39  1  0
M  END
>  <Energy>  (822) 
832.19267917897525

>  <compound_id>  (822) 
13509

>  <target_id>  (822) 
1

>  <reference_id>  (822) 
96

>  <inspiration_ids>  (822) 
[96, 122]

>  <energy_score>  (822) 
779.6806524149315

>  <distance_score>  (822) 
14.666920846250658

>  <path>  (822) 
/opt/xchem-fragalysis-2/maxwin/BulkDock/SCRATCH/511016/C13509-P96/C13509-P96.minimised.mol

>  <scratch_subdir>  (822) 
/opt/xchem-fragalysis-2/maxwin/BulkDock/SCRATCH/511016/C13509-P96

>  <fragmenstein_runtime>  (822) 
22.363505840301514

>  <fragmenstein_outcome>  (822) 
too moved

>  <fragmenstein_mode>  (822) 
expansion

>  <fragmenstein_error>  (822) 


$$$$
C13509-P122
     RDKit          3D

 39 40  0  0  0  0  0  0  0  0999 V2000
    3.8087  -11.6702   14.0939 C   0  0  0  0  0  0  0  0  0  0  0  0
    3.0093  -10.5496   13.5504 N   0  0  0  0  0  0  0  0  0  0  0  0
    3.2234  -11.3217   12.2621 C   0  0  0  0  0  0  0  0  0  0  0  0
    3.5479   -9.2826   14.0058 C   0  0  0  0  0  0  0  0  0  0  0  0
    4.3837   -8.5731   13.4899 O   0  0  0  0  0  0  0  0  0  0  0  0
    2.7823   -8.3322   15.6863 C   0  0  0  0  0  0  0  0  0  0  0  0
    1.0685   -7.9917   16.1945 N   0  0  0  0  0  0  0  0  0  0  0  0
    0.5296   -8.4620   17.4062 C   0  0  0  0  0  0  0  0  0  0  0  0
   -0.8555   -8.2289   17.3793 C   0  0  0  0  0  0  0  0  0  0  0  0
   -1.6846   -8.7977   18.3248 N   0  0  0  0  0  0  0  0  0  0  0  0
   -3.1999   -8.8590   18.4063 C   0  0  0  0  0  0  0  0  0  0  0  0
   -4.0189   -8.3646   17.7180 O   0  0  0  0  0  0  0  0  0  0  0  0
   -3.3540   -9.7665   19.6190 N   0  0  0  0  0  0  0  0  0  0  0  0
   -4.4886  -10.3329   20.1890 N   0  0  0  0  0  0  0  0  0  0  0  0
   -5.5126  -11.1877   19.6193 C   0  0  0  0  0  0  0  0  0  0  0  0
   -5.6840  -11.5556   18.4943 O   0  0  0  0  0  0  0  0  0  0  0  0
   -6.4202  -11.7589   20.6495 C   0  0  0  0  0  0  0  0  0  0  0  0
   -6.6792  -11.5209   21.9939 C   0  0  0  0  0  0  0  0  0  0  0  0
   -7.4896  -12.5921   22.4401 C   0  0  0  0  0  0  0  0  0  0  0  0
   -7.7531  -13.4544   21.4624 N   0  0  0  0  0  0  0  0  0  0  0  0
   -7.1810  -12.8879   20.3776 N   0  0  0  0  0  0  0  0  0  0  0  0
   -1.0352   -7.4371   16.2234 C   0  0  0  0  0  0  0  0  0  0  0  0
    0.1165   -7.1907   15.5621 N   0  0  0  0  0  0  0  0  0  0  0  0
    4.8617  -11.6486   13.7718 H   0  0  0  0  0  0  0  0  0  0  0  0
    3.8979  -11.5132   15.1684 H   0  0  0  0  0  0  0  0  0  0  0  0
    3.3269  -12.6310   13.9309 H   0  0  0  0  0  0  0  0  0  0  0  0
    4.2283  -11.6432   11.9520 H   0  0  0  0  0  0  0  0  0  0  0  0
    2.8380  -10.6565   11.4753 H   0  0  0  0  0  0  0  0  0  0  0  0
    2.5180  -12.1680   12.2087 H   0  0  0  0  0  0  0  0  0  0  0  0
    2.9023   -8.6672   16.7572 H   0  0  0  0  0  0  0  0  0  0  0  0
    3.2630   -7.3221   15.5772 H   0  0  0  0  0  0  0  0  0  0  0  0
    1.2079   -8.8758   18.1358 H   0  0  0  0  0  0  0  0  0  0  0  0
   -1.2856   -9.4051   19.0252 H   0  0  0  0  0  0  0  0  0  0  0  0
   -2.4443  -10.0772   19.9227 H   0  0  0  0  0  0  0  0  0  0  0  0
   -4.6051  -10.3011   21.1916 H   0  0  0  0  0  0  0  0  0  0  0  0
   -6.3090  -10.7067   22.6000 H   0  0  0  0  0  0  0  0  0  0  0  0
   -7.8828  -12.7774   23.4319 H   0  0  0  0  0  0  0  0  0  0  0  0
   -7.2668  -13.3487   19.4747 H   0  0  0  0  0  0  0  0  0  0  0  0
   -1.9558   -7.0147   15.8408 H   0  0  0  0  0  0  0  0  0  0  0  0
  1  2  1  0
  2  3  1  0
  2  4  1  0
  4  5  2  0
  4  6  1  0
  6  7  1  0
  7  8  1  0
  8  9  2  0
  9 10  1  0
 10 11  1  0
 11 12  2  0
 11 13  1  0
 13 14  1  0
 14 15  1  0
 15 16  2  0
 15 17  1  0
 17 18  2  0
 18 19  1  0
 19 20  2  0
 20 21  1  0
  9 22  1  0
 22 23  2  0
 23  7  1  0
 21 17  1  0
  1 24  1  0
  1 25  1  0
  1 26  1  0
  3 27  1  0
  3 28  1  0
  3 29  1  0
  6 30  1  0
  6 31  1  0
  8 32  1  0
 10 33  1  0
 13 34  1  0
 14 35  1  0
 18 36  1  0
 19 37  1  0
 21 38  1  0
 22 39  1  0
M  END
>  <Energy>  (823) 
249.82746162884399

>  <compound_id>  (823) 
13509

>  <target_id>  (823) 
1

>  <reference_id>  (823) 
122

>  <inspiration_ids>  (823) 
[96, 122]

>  <energy_score>  (823) 
197.31543486481416

>  <distance_score>  (823) 
14.091214913180204

>  <path>  (823) 
/opt/xchem-fragalysis-2/maxwin/BulkDock/SCRATCH/511016/C13509-P122/C13509-P122.minimised.mol

>  <scratch_subdir>  (823) 
/opt/xchem-fragalysis-2/maxwin/BulkDock/SCRATCH/511016/C13509-P122

>  <fragmenstein_runtime>  (823) 
47.35726761817932

>  <fragmenstein_outcome>  (823) 
too moved

>  <fragmenstein_mode>  (823) 
expansion

>  <fragmenstein_error>  (823) 


$$$$
C13511-P96
     RDKit          3D

 45 46  0  0  0  0  0  0  0  0999 V2000
   -4.7363  -10.3847   18.7325 C   0  0  0  0  0  0  0  0  0  0  0  0
   -3.3711  -10.8160   18.4714 C   0  0  0  0  0  0  0  0  0  0  0  0
   -3.5103  -11.7451   17.2031 C   0  0  0  0  0  0  0  0  0  0  0  0
   -2.8461  -13.5025   16.8523 C   0  0  0  0  0  0  0  0  0  0  0  0
   -1.8097  -13.0448   15.9725 C   0  0  0  0  0  0  0  0  0  0  0  0
   -3.0432  -15.2158   17.6224 N   0  0  0  0  0  0  0  0  0  0  0  0
   -4.2470  -16.4594   17.3298 C   0  0  0  0  0  0  0  0  0  0  0  0
   -5.1070  -16.4188   16.4902 O   0  0  0  0  0  0  0  0  0  0  0  0
   -4.4203  -17.6353   18.1469 C   0  0  0  0  0  0  0  0  0  0  0  0
   -3.5663  -18.3977   18.8590 C   0  0  0  0  0  0  0  0  0  0  0  0
   -4.3110  -19.5348   19.3231 C   0  0  0  0  0  0  0  0  0  0  0  0
   -5.5760  -19.4834   18.9641 N   0  0  0  0  0  0  0  0  0  0  0  0
   -5.6124  -18.4139   18.1551 N   0  0  0  0  0  0  0  0  0  0  0  0
   -6.8173  -18.3313   17.3561 C   0  0  0  0  0  0  0  0  0  0  0  0
   -2.7763   -9.4685   18.3543 N   0  0  0  0  0  0  0  0  0  0  0  0
   -2.8052   -8.3174   19.2690 C   0  0  0  0  0  0  0  0  0  0  0  0
   -3.3869   -8.1583   20.3061 O   0  0  0  0  0  0  0  0  0  0  0  0
   -1.8816   -7.2291   18.6590 C   0  0  0  0  0  0  0  0  0  0  0  0
   -1.7624   -5.8915   19.3413 C   0  0  0  0  0  0  0  0  0  0  0  0
   -1.5439   -5.4943   20.6455 C   0  0  0  0  0  0  0  0  0  0  0  0
   -1.3809   -4.0964   20.5996 C   0  0  0  0  0  0  0  0  0  0  0  0
   -1.4695   -3.6251   19.3579 N   0  0  0  0  0  0  0  0  0  0  0  0
   -1.7629   -4.7142   18.6315 N   0  0  0  0  0  0  0  0  0  0  0  0
   -4.8712   -9.6882   17.9219 H   0  0  0  0  0  0  0  0  0  0  0  0
   -5.4524  -11.1911   18.6942 H   0  0  0  0  0  0  0  0  0  0  0  0
   -4.8621   -9.7667   19.6151 H   0  0  0  0  0  0  0  0  0  0  0  0
   -2.8740  -11.3380   19.2419 H   0  0  0  0  0  0  0  0  0  0  0  0
   -3.1804  -11.0637   16.4094 H   0  0  0  0  0  0  0  0  0  0  0  0
   -4.5408  -11.7044   16.8593 H   0  0  0  0  0  0  0  0  0  0  0  0
   -3.5710  -13.6902   16.0241 H   0  0  0  0  0  0  0  0  0  0  0  0
   -2.1710  -13.6107   15.1107 H   0  0  0  0  0  0  0  0  0  0  0  0
   -0.7226  -13.1356   16.1153 H   0  0  0  0  0  0  0  0  0  0  0  0
   -1.9016  -12.0078   15.9934 H   0  0  0  0  0  0  0  0  0  0  0  0
   -2.4932  -15.4665   18.4431 H   0  0  0  0  0  0  0  0  0  0  0  0
   -2.5262  -18.1456   18.9840 H   0  0  0  0  0  0  0  0  0  0  0  0
   -3.9784  -20.3653   19.9359 H   0  0  0  0  0  0  0  0  0  0  0  0
   -7.2588  -19.3319   17.2818 H   0  0  0  0  0  0  0  0  0  0  0  0
   -6.6067  -18.0092   16.3385 H   0  0  0  0  0  0  0  0  0  0  0  0
   -7.5286  -17.6875   17.8731 H   0  0  0  0  0  0  0  0  0  0  0  0
   -2.2431   -9.2235   17.5301 H   0  0  0  0  0  0  0  0  0  0  0  0
   -2.1974   -7.0677   17.6204 H   0  0  0  0  0  0  0  0  0  0  0  0
   -0.8801   -7.6657   18.6501 H   0  0  0  0  0  0  0  0  0  0  0  0
   -1.4811   -6.1206   21.5185 H   0  0  0  0  0  0  0  0  0  0  0  0
   -1.1881   -3.4108   21.4142 H   0  0  0  0  0  0  0  0  0  0  0  0
   -1.9727   -4.5734   17.6521 H   0  0  0  0  0  0  0  0  0  0  0  0
  1  2  1  0
  2  3  1  0
  3  4  1  0
  4  5  1  0
  4  6  1  0
  6  7  1  0
  7  8  2  0
  7  9  1  0
  9 10  2  0
 10 11  1  0
 11 12  2  0
 12 13  1  0
 13 14  1  0
  2 15  1  0
 15 16  1  0
 16 17  2  0
 16 18  1  0
 18 19  1  0
 19 20  2  0
 20 21  1  0
 21 22  2  0
 22 23  1  0
 13  9  1  0
 23 19  1  0
  1 24  1  0
  1 25  1  0
  1 26  1  0
  2 27  1  0
  3 28  1  0
  3 29  1  0
  4 30  1  0
  5 31  1  0
  5 32  1  0
  5 33  1  0
  6 34  1  0
 10 35  1  0
 11 36  1  0
 14 37  1  0
 14 38  1  0
 14 39  1  0
 15 40  1  0
 18 41  1  0
 18 42  1  0
 20 43  1  0
 21 44  1  0
 23 45  1  0
M  END
>  <Energy>  (824) 
248.08292367186789

>  <compound_id>  (824) 
13511

>  <target_id>  (824) 
1

>  <reference_id>  (824) 
96

>  <inspiration_ids>  (824) 
[96, 122]

>  <energy_score>  (824) 
199.93164012214675

>  <distance_score>  (824) 
13.989625099710219

>  <path>  (824) 
/opt/xchem-fragalysis-2/maxwin/BulkDock/SCRATCH/511016/C13511-P96/C13511-P96.minimised.mol

>  <scratch_subdir>  (824) 
/opt/xchem-fragalysis-2/maxwin/BulkDock/SCRATCH/511016/C13511-P96

>  <fragmenstein_runtime>  (824) 
41.19671320915222

>  <fragmenstein_outcome>  (824) 
too moved

>  <fragmenstein_mode>  (824) 
expansion

>  <fragmenstein_error>  (824) 


$$$$
C13511-P122
     RDKit          3D

 45 46  0  0  0  0  0  0  0  0999 V2000
   -2.8159  -10.0988   18.0379 C   0  0  0  0  0  0  0  0  0  0  0  0
   -1.5009  -10.7331   18.3771 C   0  0  0  0  0  0  0  0  0  0  0  0
   -1.7702  -12.8117   18.2050 C   0  0  0  0  0  0  0  0  0  0  0  0
   -1.8326  -14.8841   18.5936 C   0  0  0  0  0  0  0  0  0  0  0  0
   -1.3254  -15.7481   19.8094 C   0  0  0  0  0  0  0  0  0  0  0  0
   -2.9298  -16.4760   18.8133 N   0  0  0  0  0  0  0  0  0  0  0  0
   -3.9485  -17.0752   17.9432 C   0  0  0  0  0  0  0  0  0  0  0  0
   -4.3367  -16.7459   16.8600 O   0  0  0  0  0  0  0  0  0  0  0  0
   -4.5139  -18.3891   18.4981 C   0  0  0  0  0  0  0  0  0  0  0  0
   -4.4047  -19.6072   17.8216 C   0  0  0  0  0  0  0  0  0  0  0  0
   -5.0815  -20.5957   18.5462 C   0  0  0  0  0  0  0  0  0  0  0  0
   -5.6827  -20.0713   19.5949 N   0  0  0  0  0  0  0  0  0  0  0  0
   -5.4930  -18.7391   19.4414 N   0  0  0  0  0  0  0  0  0  0  0  0
   -6.4936  -17.9577   20.1090 C   0  0  0  0  0  0  0  0  0  0  0  0
   -0.2513   -9.1177   18.2315 N   0  0  0  0  0  0  0  0  0  0  0  0
    1.5968   -9.0230   17.9833 C   0  0  0  0  0  0  0  0  0  0  0  0
    2.2606   -9.9944   17.7826 O   0  0  0  0  0  0  0  0  0  0  0  0
    2.6289   -7.6755   18.1358 C   0  0  0  0  0  0  0  0  0  0  0  0
    4.4796   -6.8300   18.0318 C   0  0  0  0  0  0  0  0  0  0  0  0
    5.1944   -6.1274   17.0058 C   0  0  0  0  0  0  0  0  0  0  0  0
    4.5480   -4.7967   16.7658 C   0  0  0  0  0  0  0  0  0  0  0  0
    4.0660   -4.2444   17.9007 N   0  0  0  0  0  0  0  0  0  0  0  0
    4.7456   -5.2828   18.7540 N   0  0  0  0  0  0  0  0  0  0  0  0
   -3.0179   -9.3408   18.8031 H   0  0  0  0  0  0  0  0  0  0  0  0
   -3.5496  -10.9032   18.0214 H   0  0  0  0  0  0  0  0  0  0  0  0
   -2.8820   -9.5682   17.1011 H   0  0  0  0  0  0  0  0  0  0  0  0
   -1.6318  -10.7502   19.4855 H   0  0  0  0  0  0  0  0  0  0  0  0
   -0.8227  -12.9656   17.7061 H   0  0  0  0  0  0  0  0  0  0  0  0
   -2.5353  -12.8084   17.4480 H   0  0  0  0  0  0  0  0  0  0  0  0
   -1.9362  -15.0876   17.5211 H   0  0  0  0  0  0  0  0  0  0  0  0
   -1.4248  -16.8389   19.9860 H   0  0  0  0  0  0  0  0  0  0  0  0
   -1.8895  -15.2835   20.6072 H   0  0  0  0  0  0  0  0  0  0  0  0
   -0.2570  -15.9990   19.9422 H   0  0  0  0  0  0  0  0  0  0  0  0
   -2.9201  -16.9702   19.6976 H   0  0  0  0  0  0  0  0  0  0  0  0
   -3.9082  -19.7322   16.8716 H   0  0  0  0  0  0  0  0  0  0  0  0
   -5.1748  -21.6547   18.3459 H   0  0  0  0  0  0  0  0  0  0  0  0
   -7.0214  -18.5705   20.8475 H   0  0  0  0  0  0  0  0  0  0  0  0
   -7.2141  -17.6009   19.3737 H   0  0  0  0  0  0  0  0  0  0  0  0
   -5.9892  -17.1785   20.6348 H   0  0  0  0  0  0  0  0  0  0  0  0
   -0.5923   -8.2230   18.4641 H   0  0  0  0  0  0  0  0  0  0  0  0
    3.3156   -8.5233   18.1384 H   0  0  0  0  0  0  0  0  0  0  0  0
    2.3294   -7.2449   19.0831 H   0  0  0  0  0  0  0  0  0  0  0  0
    5.9771   -6.5416   16.3951 H   0  0  0  0  0  0  0  0  0  0  0  0
    4.4542   -4.0672   15.9580 H   0  0  0  0  0  0  0  0  0  0  0  0
    4.3170   -5.0516   19.6271 H   0  0  0  0  0  0  0  0  0  0  0  0
  1  2  1  0
  2  3  1  0
  3  4  1  0
  4  5  1  0
  4  6  1  0
  6  7  1  0
  7  8  2  0
  7  9  1  0
  9 10  2  0
 10 11  1  0
 11 12  2  0
 12 13  1  0
 13 14  1  0
  2 15  1  0
 15 16  1  0
 16 17  2  0
 16 18  1  0
 18 19  1  0
 19 20  2  0
 20 21  1  0
 21 22  2  0
 22 23  1  0
 13  9  1  0
 23 19  1  0
  1 24  1  0
  1 25  1  0
  1 26  1  0
  2 27  1  0
  3 28  1  0
  3 29  1  0
  4 30  1  0
  5 31  1  0
  5 32  1  0
  5 33  1  0
  6 34  1  0
 10 35  1  0
 11 36  1  0
 14 37  1  0
 14 38  1  0
 14 39  1  0
 15 40  1  0
 18 41  1  0
 18 42  1  0
 20 43  1  0
 21 44  1  0
 23 45  1  0
M  END
>  <Energy>  (825) 
892.45191614520729

>  <compound_id>  (825) 
13511

>  <target_id>  (825) 
1

>  <reference_id>  (825) 
122

>  <inspiration_ids>  (825) 
[96, 122]

>  <energy_score>  (825) 
844.3006325954693

>  <distance_score>  (825) 
11.331877355530425

>  <path>  (825) 
/opt/xchem-fragalysis-2/maxwin/BulkDock/SCRATCH/511016/C13511-P122/C13511-P122.minimised.mol

>  <scratch_subdir>  (825) 
/opt/xchem-fragalysis-2/maxwin/BulkDock/SCRATCH/511016/C13511-P122

>  <fragmenstein_runtime>  (825) 
52.26504635810852

>  <fragmenstein_outcome>  (825) 
too moved

>  <fragmenstein_mode>  (825) 
expansion

>  <fragmenstein_error>  (825) 


$$$$
C13512-P96
     RDKit          3D

 39 40  0  0  0  0  0  0  0  0999 V2000
    1.5720  -13.2072   19.1641 C   0  0  0  0  0  0  0  0  0  0  0  0
    1.6617  -14.0447   18.1422 N   0  0  0  0  0  0  0  0  0  0  0  0
    0.1952  -14.9657   19.0936 C   0  0  0  0  0  0  0  0  0  0  0  0
   -1.0143  -16.3397   19.0127 C   0  0  0  0  0  0  0  0  0  0  0  0
   -1.2330  -17.8514   19.5849 N   0  0  0  0  0  0  0  0  0  0  0  0
   -1.5429  -18.1116   18.1789 C   0  0  0  0  0  0  0  0  0  0  0  0
   -0.2813  -18.8294   20.0725 C   0  0  0  0  0  0  0  0  0  0  0  0
    0.9186  -18.8052   20.0940 O   0  0  0  0  0  0  0  0  0  0  0  0
   -1.0302  -19.9948   20.7325 C   0  0  0  0  0  0  0  0  0  0  0  0
   -2.1787  -20.7393   20.2913 C   0  0  0  0  0  0  0  0  0  0  0  0
   -2.5874  -21.5094   21.3587 C   0  0  0  0  0  0  0  0  0  0  0  0
   -1.7133  -21.2270   22.3570 N   0  0  0  0  0  0  0  0  0  0  0  0
   -0.7410  -20.3793   21.9940 N   0  0  0  0  0  0  0  0  0  0  0  0
    1.6723  -13.3663   17.0103 C   0  0  0  0  0  0  0  0  0  0  0  0
    0.7778  -13.0409   16.2868 O   0  0  0  0  0  0  0  0  0  0  0  0
    3.2792  -12.7826   16.6887 C   0  0  0  0  0  0  0  0  0  0  0  0
    4.1225  -11.3140   17.2750 C   0  0  0  0  0  0  0  0  0  0  0  0
    4.8437  -11.0315   18.3567 C   0  0  0  0  0  0  0  0  0  0  0  0
    5.7169   -9.9617   18.2371 C   0  0  0  0  0  0  0  0  0  0  0  0
    5.5407   -9.3900   17.0503 N   0  0  0  0  0  0  0  0  0  0  0  0
    4.6115  -10.2101   16.4798 N   0  0  0  0  0  0  0  0  0  0  0  0
    2.2781  -13.3345   20.0126 H   0  0  0  0  0  0  0  0  0  0  0  0
    2.2613  -12.2894   19.5088 H   0  0  0  0  0  0  0  0  0  0  0  0
    2.1303  -12.4735   18.6136 H   0  0  0  0  0  0  0  0  0  0  0  0
   -0.0872  -14.4621   20.0199 H   0  0  0  0  0  0  0  0  0  0  0  0
    0.5759  -15.8207   19.5449 H   0  0  0  0  0  0  0  0  0  0  0  0
   -1.9983  -15.9061   18.7224 H   0  0  0  0  0  0  0  0  0  0  0  0
   -1.1315  -16.1247   20.0603 H   0  0  0  0  0  0  0  0  0  0  0  0
   -2.4992  -17.6761   17.8874 H   0  0  0  0  0  0  0  0  0  0  0  0
   -0.6783  -17.9709   17.5210 H   0  0  0  0  0  0  0  0  0  0  0  0
   -1.7260  -19.1872   18.0689 H   0  0  0  0  0  0  0  0  0  0  0  0
   -2.6865  -20.6729   19.3420 H   0  0  0  0  0  0  0  0  0  0  0  0
   -3.4211  -22.1828   21.4952 H   0  0  0  0  0  0  0  0  0  0  0  0
   -1.7017  -21.5808   23.3073 H   0  0  0  0  0  0  0  0  0  0  0  0
    3.8672  -13.6282   16.3953 H   0  0  0  0  0  0  0  0  0  0  0  0
    3.0488  -11.9558   16.0054 H   0  0  0  0  0  0  0  0  0  0  0  0
    4.6969  -11.8053   19.0041 H   0  0  0  0  0  0  0  0  0  0  0  0
    6.4803   -9.6000   18.9115 H   0  0  0  0  0  0  0  0  0  0  0  0
    4.1498   -9.8930   15.6360 H   0  0  0  0  0  0  0  0  0  0  0  0
  1  2  1  0
  2  3  1  0
  3  4  1  0
  4  5  1  0
  5  6  1  0
  5  7  1  0
  7  8  2  0
  7  9  1  0
  9 10  1  0
 10 11  2  0
 11 12  1  0
 12 13  1  0
  2 14  1  0
 14 15  2  0
 14 16  1  0
 16 17  1  0
 17 18  2  0
 18 19  1  0
 19 20  2  0
 20 21  1  0
 13  9  2  0
 21 17  1  0
  1 22  1  0
  1 23  1  0
  1 24  1  0
  3 25  1  0
  3 26  1  0
  4 27  1  0
  4 28  1  0
  6 29  1  0
  6 30  1  0
  6 31  1  0
 10 32  1  0
 11 33  1  0
 12 34  1  0
 16 35  1  0
 16 36  1  0
 18 37  1  0
 19 38  1  0
 21 39  1  0
M  END
>  <Energy>  (826) 
613.2874105743166

>  <compound_id>  (826) 
13512

>  <target_id>  (826) 
1

>  <reference_id>  (826) 
96

>  <inspiration_ids>  (826) 
[96, 122]

>  <energy_score>  (826) 
518.4270300666929

>  <distance_score>  (826) 
12.107886144392499

>  <path>  (826) 
/opt/xchem-fragalysis-2/maxwin/BulkDock/SCRATCH/511016/C13512-P96/C13512-P96.minimised.mol

>  <scratch_subdir>  (826) 
/opt/xchem-fragalysis-2/maxwin/BulkDock/SCRATCH/511016/C13512-P96

>  <fragmenstein_runtime>  (826) 
17.091166734695435

>  <fragmenstein_outcome>  (826) 
too moved

>  <fragmenstein_mode>  (826) 
expansion

>  <fragmenstein_error>  (826) 


$$$$
C13512-P122
     RDKit          3D

 39 40  0  0  0  0  0  0  0  0999 V2000
    0.2517   -8.6068   21.2295 C   0  0  0  0  0  0  0  0  0  0  0  0
    0.0120   -8.7808   19.8132 N   0  0  0  0  0  0  0  0  0  0  0  0
   -1.1973  -10.2452   20.5132 C   0  0  0  0  0  0  0  0  0  0  0  0
   -1.4518  -12.2908   20.8636 C   0  0  0  0  0  0  0  0  0  0  0  0
   -2.0699  -14.2372   20.9125 N   0  0  0  0  0  0  0  0  0  0  0  0
   -0.5826  -14.4771   22.2270 C   0  0  0  0  0  0  0  0  0  0  0  0
   -1.9714  -15.3743   19.8111 C   0  0  0  0  0  0  0  0  0  0  0  0
   -1.4073  -15.2686   18.8109 O   0  0  0  0  0  0  0  0  0  0  0  0
   -2.4942  -16.8323   19.9607 C   0  0  0  0  0  0  0  0  0  0  0  0
   -1.5042  -17.9075   20.0348 C   0  0  0  0  0  0  0  0  0  0  0  0
   -2.0296  -19.0109   19.3993 C   0  0  0  0  0  0  0  0  0  0  0  0
   -3.2911  -18.6484   19.0663 N   0  0  0  0  0  0  0  0  0  0  0  0
   -3.5653  -17.3679   19.3178 N   0  0  0  0  0  0  0  0  0  0  0  0
    1.6280   -8.8663   18.8820 C   0  0  0  0  0  0  0  0  0  0  0  0
    2.1177   -9.9063   18.7182 O   0  0  0  0  0  0  0  0  0  0  0  0
    2.4715   -7.7959   18.1059 C   0  0  0  0  0  0  0  0  0  0  0  0
    4.3094   -7.1100   17.9430 C   0  0  0  0  0  0  0  0  0  0  0  0
    4.9343   -5.9560   18.4706 C   0  0  0  0  0  0  0  0  0  0  0  0
    6.2097   -5.9875   18.1218 C   0  0  0  0  0  0  0  0  0  0  0  0
    6.2216   -6.4372   16.9095 N   0  0  0  0  0  0  0  0  0  0  0  0
    4.8852   -6.4675   16.8390 N   0  0  0  0  0  0  0  0  0  0  0  0
   -0.6398   -8.4097   21.8245 H   0  0  0  0  0  0  0  0  0  0  0  0
    0.8630   -7.7309   21.4002 H   0  0  0  0  0  0  0  0  0  0  0  0
    0.7761   -9.4864   21.5362 H   0  0  0  0  0  0  0  0  0  0  0  0
   -1.9199  -10.1619   19.6754 H   0  0  0  0  0  0  0  0  0  0  0  0
   -1.7649   -9.7957   21.3395 H   0  0  0  0  0  0  0  0  0  0  0  0
   -2.4880  -11.9691   21.0222 H   0  0  0  0  0  0  0  0  0  0  0  0
   -1.5937  -12.3045   19.7634 H   0  0  0  0  0  0  0  0  0  0  0  0
   -0.1754  -13.6976   22.8217 H   0  0  0  0  0  0  0  0  0  0  0  0
   -1.1859  -14.8643   23.0623 H   0  0  0  0  0  0  0  0  0  0  0  0
   -0.0570  -15.4357   21.9647 H   0  0  0  0  0  0  0  0  0  0  0  0
   -0.4849  -17.7969   20.3747 H   0  0  0  0  0  0  0  0  0  0  0  0
   -1.6238  -19.9869   19.1770 H   0  0  0  0  0  0  0  0  0  0  0  0
   -4.0040  -19.2046   18.6069 H   0  0  0  0  0  0  0  0  0  0  0  0
    3.0519   -8.6235   17.6448 H   0  0  0  0  0  0  0  0  0  0  0  0
    1.8969   -7.8410   17.1337 H   0  0  0  0  0  0  0  0  0  0  0  0
    4.5514   -5.1689   19.1390 H   0  0  0  0  0  0  0  0  0  0  0  0
    6.7946   -5.3697   18.7204 H   0  0  0  0  0  0  0  0  0  0  0  0
    4.3412   -6.2069   16.0282 H   0  0  0  0  0  0  0  0  0  0  0  0
  1  2  1  0
  2  3  1  0
  3  4  1  0
  4  5  1  0
  5  6  1  0
  5  7  1  0
  7  8  2  0
  7  9  1  0
  9 10  1  0
 10 11  2  0
 11 12  1  0
 12 13  1  0
  2 14  1  0
 14 15  2  0
 14 16  1  0
 16 17  1  0
 17 18  2  0
 18 19  1  0
 19 20  2  0
 20 21  1  0
 13  9  2  0
 21 17  1  0
  1 22  1  0
  1 23  1  0
  1 24  1  0
  3 25  1  0
  3 26  1  0
  4 27  1  0
  4 28  1  0
  6 29  1  0
  6 30  1  0
  6 31  1  0
 10 32  1  0
 11 33  1  0
 12 34  1  0
 16 35  1  0
 16 36  1  0
 18 37  1  0
 19 38  1  0
 21 39  1  0
M  END
>  <Energy>  (827) 
941.71136278343624

>  <compound_id>  (827) 
13512

>  <target_id>  (827) 
1

>  <reference_id>  (827) 
122

>  <inspiration_ids>  (827) 
[96, 122]

>  <energy_score>  (827) 
846.8509822758086

>  <distance_score>  (827) 
12.024409906575128

>  <path>  (827) 
/opt/xchem-fragalysis-2/maxwin/BulkDock/SCRATCH/511016/C13512-P122/C13512-P122.minimised.mol

>  <scratch_subdir>  (827) 
/opt/xchem-fragalysis-2/maxwin/BulkDock/SCRATCH/511016/C13512-P122

>  <fragmenstein_runtime>  (827) 
27.45469093322754

>  <fragmenstein_outcome>  (827) 
too moved

>  <fragmenstein_mode>  (827) 
expansion

>  <fragmenstein_error>  (827) 


$$$$
C13513-P96
     RDKit          3D

 42 43  0  0  0  0  0  0  0  0999 V2000
    2.4851  -13.4406   16.2969 C   0  0  0  0  0  0  0  0  0  0  0  0
    1.7548  -11.9260   16.1763 N   0  0  0  0  0  0  0  0  0  0  0  0
    0.2161  -13.1302   16.0052 C   0  0  0  0  0  0  0  0  0  0  0  0
   -1.7195  -12.9844   16.2468 C   0  0  0  0  0  0  0  0  0  0  0  0
   -2.5732  -14.5427   16.8681 N   0  0  0  0  0  0  0  0  0  0  0  0
   -3.5651  -13.8396   15.7957 C   0  0  0  0  0  0  0  0  0  0  0  0
   -2.9482  -14.9427   18.2104 C   0  0  0  0  0  0  0  0  0  0  0  0
   -2.8920  -14.3437   19.2385 O   0  0  0  0  0  0  0  0  0  0  0  0
   -3.3869  -16.4201   18.2608 C   0  0  0  0  0  0  0  0  0  0  0  0
   -2.5925  -17.4807   18.7112 C   0  0  0  0  0  0  0  0  0  0  0  0
   -3.2895  -18.6479   18.4749 C   0  0  0  0  0  0  0  0  0  0  0  0
   -4.4649  -18.2547   17.9330 N   0  0  0  0  0  0  0  0  0  0  0  0
   -5.5506  -19.0972   17.4961 C   0  0  0  0  0  0  0  0  0  0  0  0
   -4.4937  -16.9385   17.6699 N   0  0  0  0  0  0  0  0  0  0  0  0
    1.8827  -10.6617   14.9145 C   0  0  0  0  0  0  0  0  0  0  0  0
    2.4723  -10.7371   13.8464 O   0  0  0  0  0  0  0  0  0  0  0  0
    1.1039   -8.9459   15.4177 C   0  0  0  0  0  0  0  0  0  0  0  0
    0.4602   -7.4748   14.8701 C   0  0  0  0  0  0  0  0  0  0  0  0
   -0.2402   -6.5378   15.6206 C   0  0  0  0  0  0  0  0  0  0  0  0
   -0.1144   -5.3215   14.9270 C   0  0  0  0  0  0  0  0  0  0  0  0
    0.4407   -5.4903   13.7305 N   0  0  0  0  0  0  0  0  0  0  0  0
    0.6286   -6.8178   13.6646 N   0  0  0  0  0  0  0  0  0  0  0  0
    3.5464  -13.3641   16.4569 H   0  0  0  0  0  0  0  0  0  0  0  0
    2.2099  -14.3035   15.6855 H   0  0  0  0  0  0  0  0  0  0  0  0
    2.0980  -13.7452   17.2535 H   0  0  0  0  0  0  0  0  0  0  0  0
    0.2561  -13.5136   15.0067 H   0  0  0  0  0  0  0  0  0  0  0  0
    0.5681  -13.9278   16.5681 H   0  0  0  0  0  0  0  0  0  0  0  0
   -2.1824  -12.0119   16.5038 H   0  0  0  0  0  0  0  0  0  0  0  0
   -1.8941  -13.2523   15.2915 H   0  0  0  0  0  0  0  0  0  0  0  0
   -3.1484  -14.1848   14.8478 H   0  0  0  0  0  0  0  0  0  0  0  0
   -3.7688  -12.7866   15.9783 H   0  0  0  0  0  0  0  0  0  0  0  0
   -4.5002  -14.3789   15.5076 H   0  0  0  0  0  0  0  0  0  0  0  0
   -1.6160  -17.3322   19.1391 H   0  0  0  0  0  0  0  0  0  0  0  0
   -3.0483  -19.6865   18.6543 H   0  0  0  0  0  0  0  0  0  0  0  0
   -6.4776  -18.7185   17.9334 H   0  0  0  0  0  0  0  0  0  0  0  0
   -5.5967  -19.0619   16.4050 H   0  0  0  0  0  0  0  0  0  0  0  0
   -5.3730  -20.1217   17.8321 H   0  0  0  0  0  0  0  0  0  0  0  0
    0.6984   -8.8671   16.4005 H   0  0  0  0  0  0  0  0  0  0  0  0
    2.0324   -8.4285   15.5793 H   0  0  0  0  0  0  0  0  0  0  0  0
   -0.6574   -6.6813   16.6069 H   0  0  0  0  0  0  0  0  0  0  0  0
   -0.4199   -4.3307   15.2376 H   0  0  0  0  0  0  0  0  0  0  0  0
    0.9420   -7.1925   12.7769 H   0  0  0  0  0  0  0  0  0  0  0  0
  1  2  1  0
  2  3  1  0
  3  4  1  0
  4  5  1  0
  5  6  1  0
  5  7  1  0
  7  8  2  0
  7  9  1  0
  9 10  1  0
 10 11  2  0
 11 12  1  0
 12 13  1  0
 12 14  1  0
  2 15  1  0
 15 16  2  0
 15 17  1  0
 17 18  1  0
 18 19  2  0
 19 20  1  0
 20 21  2  0
 21 22  1  0
 14  9  2  0
 22 18  1  0
  1 23  1  0
  1 24  1  0
  1 25  1  0
  3 26  1  0
  3 27  1  0
  4 28  1  0
  4 29  1  0
  6 30  1  0
  6 31  1  0
  6 32  1  0
 10 33  1  0
 11 34  1  0
 13 35  1  0
 13 36  1  0
 13 37  1  0
 17 38  1  0
 17 39  1  0
 19 40  1  0
 20 41  1  0
 22 42  1  0
M  END
>  <Energy>  (828) 
608.94082118711958

>  <compound_id>  (828) 
13513

>  <target_id>  (828) 
1

>  <reference_id>  (828) 
96

>  <inspiration_ids>  (828) 
[96, 122]

>  <energy_score>  (828) 
501.1840521266988

>  <distance_score>  (828) 
13.943269916282132

>  <path>  (828) 
/opt/xchem-fragalysis-2/maxwin/BulkDock/SCRATCH/511016/C13513-P96/C13513-P96.minimised.mol

>  <scratch_subdir>  (828) 
/opt/xchem-fragalysis-2/maxwin/BulkDock/SCRATCH/511016/C13513-P96

>  <fragmenstein_runtime>  (828) 
23.192413330078125

>  <fragmenstein_outcome>  (828) 
too moved

>  <fragmenstein_mode>  (828) 
expansion

>  <fragmenstein_error>  (828) 


$$$$
C13513-P122
     RDKit          3D

 42 43  0  0  0  0  0  0  0  0999 V2000
    2.1411  -14.2601   18.2425 C   0  0  0  0  0  0  0  0  0  0  0  0
    3.4918  -13.9934   18.3412 N   0  0  0  0  0  0  0  0  0  0  0  0
    3.2374  -15.6832   18.0836 C   0  0  0  0  0  0  0  0  0  0  0  0
    2.0466  -17.4101   17.5404 C   0  0  0  0  0  0  0  0  0  0  0  0
    1.5160  -19.0427   16.6855 N   0  0  0  0  0  0  0  0  0  0  0  0
    2.2830  -19.6152   17.7058 C   0  0  0  0  0  0  0  0  0  0  0  0
    0.1381  -19.7354   16.6252 C   0  0  0  0  0  0  0  0  0  0  0  0
   -0.9043  -19.4564   17.1802 O   0  0  0  0  0  0  0  0  0  0  0  0
   -0.0108  -21.0222   15.8806 C   0  0  0  0  0  0  0  0  0  0  0  0
   -1.3279  -21.5320   15.5595 C   0  0  0  0  0  0  0  0  0  0  0  0
   -1.2639  -22.8928   15.7312 C   0  0  0  0  0  0  0  0  0  0  0  0
    0.0307  -23.1490   16.0560 N   0  0  0  0  0  0  0  0  0  0  0  0
    0.6042  -24.4379   16.3596 C   0  0  0  0  0  0  0  0  0  0  0  0
    0.8296  -22.0606   16.0599 N   0  0  0  0  0  0  0  0  0  0  0  0
    4.3978  -13.2231   19.6083 C   0  0  0  0  0  0  0  0  0  0  0  0
    3.9760  -12.8564   20.6980 O   0  0  0  0  0  0  0  0  0  0  0  0
    5.9159  -12.9805   19.5330 C   0  0  0  0  0  0  0  0  0  0  0  0
    7.0243  -11.8519   19.7432 C   0  0  0  0  0  0  0  0  0  0  0  0
    8.0432  -11.3065   18.9528 C   0  0  0  0  0  0  0  0  0  0  0  0
    8.9634  -10.6852   19.8205 C   0  0  0  0  0  0  0  0  0  0  0  0
    8.5746  -10.7592   21.0830 N   0  0  0  0  0  0  0  0  0  0  0  0
    7.4144  -11.4152   20.9997 N   0  0  0  0  0  0  0  0  0  0  0  0
    2.2013  -14.7769   19.2046 H   0  0  0  0  0  0  0  0  0  0  0  0
    1.7723  -14.6026   17.2775 H   0  0  0  0  0  0  0  0  0  0  0  0
    1.3549  -13.5618   18.3005 H   0  0  0  0  0  0  0  0  0  0  0  0
    3.4130  -15.4248   17.0170 H   0  0  0  0  0  0  0  0  0  0  0  0
    4.2293  -15.8895   18.5250 H   0  0  0  0  0  0  0  0  0  0  0  0
    1.2544  -17.5352   18.2777 H   0  0  0  0  0  0  0  0  0  0  0  0
    2.0018  -17.0554   16.5172 H   0  0  0  0  0  0  0  0  0  0  0  0
    2.0440  -19.4795   18.7373 H   0  0  0  0  0  0  0  0  0  0  0  0
    1.9399  -20.6654   17.7497 H   0  0  0  0  0  0  0  0  0  0  0  0
    3.2176  -19.9265   17.2624 H   0  0  0  0  0  0  0  0  0  0  0  0
   -2.2323  -20.9500   15.4467 H   0  0  0  0  0  0  0  0  0  0  0  0
   -2.0195  -23.6644   15.6927 H   0  0  0  0  0  0  0  0  0  0  0  0
   -0.1749  -25.2029   16.3163 H   0  0  0  0  0  0  0  0  0  0  0  0
    1.3799  -24.6526   15.6205 H   0  0  0  0  0  0  0  0  0  0  0  0
    1.0308  -24.3967   17.3649 H   0  0  0  0  0  0  0  0  0  0  0  0
    6.0163  -13.1747   20.5957 H   0  0  0  0  0  0  0  0  0  0  0  0
    6.3154  -13.8917   19.2420 H   0  0  0  0  0  0  0  0  0  0  0  0
    8.1945  -11.3974   17.8895 H   0  0  0  0  0  0  0  0  0  0  0  0
    9.9112  -10.2217   19.6064 H   0  0  0  0  0  0  0  0  0  0  0  0
    6.9127  -11.5129   21.8652 H   0  0  0  0  0  0  0  0  0  0  0  0
  1  2  1  0
  2  3  1  0
  3  4  1  0
  4  5  1  0
  5  6  1  0
  5  7  1  0
  7  8  2  0
  7  9  1  0
  9 10  1  0
 10 11  2  0
 11 12  1  0
 12 13  1  0
 12 14  1  0
  2 15  1  0
 15 16  2  0
 15 17  1  0
 17 18  1  0
 18 19  2  0
 19 20  1  0
 20 21  2  0
 21 22  1  0
 14  9  2  0
 22 18  1  0
  1 23  1  0
  1 24  1  0
  1 25  1  0
  3 26  1  0
  3 27  1  0
  4 28  1  0
  4 29  1  0
  6 30  1  0
  6 31  1  0
  6 32  1  0
 10 33  1  0
 11 34  1  0
 13 35  1  0
 13 36  1  0
 13 37  1  0
 17 38  1  0
 17 39  1  0
 19 40  1  0
 20 41  1  0
 22 42  1  0
M  END
>  <Energy>  (829) 
697.15882352751862

>  <compound_id>  (829) 
13513

>  <target_id>  (829) 
1

>  <reference_id>  (829) 
122

>  <inspiration_ids>  (829) 
[96, 122]

>  <energy_score>  (829) 
589.4020544671116

>  <distance_score>  (829) 
14.86114408354044

>  <path>  (829) 
/opt/xchem-fragalysis-2/maxwin/BulkDock/SCRATCH/511016/C13513-P122/C13513-P122.minimised.mol

>  <scratch_subdir>  (829) 
/opt/xchem-fragalysis-2/maxwin/BulkDock/SCRATCH/511016/C13513-P122

>  <fragmenstein_runtime>  (829) 
27.505051612854004

>  <fragmenstein_outcome>  (829) 
too moved

>  <fragmenstein_mode>  (829) 
expansion

>  <fragmenstein_error>  (829) 


$$$$
C13514-P96
     RDKit          3D

 43 44  0  0  0  0  0  0  0  0999 V2000
   -5.6587  -17.6175   16.0024 C   0  0  0  0  0  0  0  0  0  0  0  0
   -4.9289  -17.0558   17.0982 O   0  0  0  0  0  0  0  0  0  0  0  0
   -4.7262  -17.9091   18.1283 C   0  0  0  0  0  0  0  0  0  0  0  0
   -5.6953  -18.7232   18.6692 C   0  0  0  0  0  0  0  0  0  0  0  0
   -5.0035  -19.5576   19.4710 N   0  0  0  0  0  0  0  0  0  0  0  0
   -3.6821  -19.3108   19.4658 N   0  0  0  0  0  0  0  0  0  0  0  0
   -3.4492  -18.1224   18.8398 C   0  0  0  0  0  0  0  0  0  0  0  0
   -2.1500  -17.3845   18.2879 C   0  0  0  0  0  0  0  0  0  0  0  0
   -1.8904  -17.7910   17.2521 O   0  0  0  0  0  0  0  0  0  0  0  0
   -1.5117  -16.3037   18.9272 N   0  0  0  0  0  0  0  0  0  0  0  0
   -2.2306  -15.0547   18.6050 C   0  0  0  0  0  0  0  0  0  0  0  0
    0.0686  -15.2396   18.4072 C   0  0  0  0  0  0  0  0  0  0  0  0
    1.4598  -14.5006   16.8792 C   0  0  0  0  0  0  0  0  0  0  0  0
    1.5672  -13.1760   17.1662 N   0  0  0  0  0  0  0  0  0  0  0  0
    0.2259  -13.4844   16.2064 C   0  0  0  0  0  0  0  0  0  0  0  0
    2.9135  -12.0389   16.9425 C   0  0  0  0  0  0  0  0  0  0  0  0
    2.9249  -11.4564   15.9186 O   0  0  0  0  0  0  0  0  0  0  0  0
    4.4660  -11.4765   18.0635 C   0  0  0  0  0  0  0  0  0  0  0  0
    6.3794  -11.1023   18.5042 C   0  0  0  0  0  0  0  0  0  0  0  0
    7.7590  -10.4501   17.7850 C   0  0  0  0  0  0  0  0  0  0  0  0
    8.9730  -10.7076   18.4695 C   0  0  0  0  0  0  0  0  0  0  0  0
    8.6981  -11.6366   19.3519 N   0  0  0  0  0  0  0  0  0  0  0  0
    7.6054  -12.1456   18.7541 N   0  0  0  0  0  0  0  0  0  0  0  0
   -6.4641  -16.9379   15.7190 H   0  0  0  0  0  0  0  0  0  0  0  0
   -4.9940  -17.7008   15.1390 H   0  0  0  0  0  0  0  0  0  0  0  0
   -6.1083  -18.5960   16.1961 H   0  0  0  0  0  0  0  0  0  0  0  0
   -6.7569  -18.8287   18.5058 H   0  0  0  0  0  0  0  0  0  0  0  0
   -5.3447  -20.2999   20.0773 H   0  0  0  0  0  0  0  0  0  0  0  0
   -3.2353  -15.4995   18.7016 H   0  0  0  0  0  0  0  0  0  0  0  0
   -2.4432  -14.7544   17.5796 H   0  0  0  0  0  0  0  0  0  0  0  0
   -2.5314  -14.3298   19.3509 H   0  0  0  0  0  0  0  0  0  0  0  0
   -0.6617  -14.7534   17.9343 H   0  0  0  0  0  0  0  0  0  0  0  0
    0.2718  -14.7670   19.3389 H   0  0  0  0  0  0  0  0  0  0  0  0
    2.5079  -14.6519   17.1305 H   0  0  0  0  0  0  0  0  0  0  0  0
    1.7056  -14.8842   15.8639 H   0  0  0  0  0  0  0  0  0  0  0  0
   -0.6989  -12.9352   16.3774 H   0  0  0  0  0  0  0  0  0  0  0  0
    0.3250  -13.0232   15.2609 H   0  0  0  0  0  0  0  0  0  0  0  0
    0.2770  -14.1059   15.2896 H   0  0  0  0  0  0  0  0  0  0  0  0
    3.9299  -10.9429   18.8341 H   0  0  0  0  0  0  0  0  0  0  0  0
    4.6312  -10.6267   17.3691 H   0  0  0  0  0  0  0  0  0  0  0  0
    7.6755   -9.7117   16.9776 H   0  0  0  0  0  0  0  0  0  0  0  0
    9.9562  -10.2672   18.3738 H   0  0  0  0  0  0  0  0  0  0  0  0
    7.6321  -13.1059   18.4187 H   0  0  0  0  0  0  0  0  0  0  0  0
  1  2  1  0
  2  3  1  0
  3  4  2  0
  4  5  1  0
  5  6  1  0
  6  7  2  0
  7  8  1  0
  8  9  2  0
  8 10  1  0
 10 11  1  0
 10 12  1  0
 12 13  1  0
 13 14  1  0
 14 15  1  0
 14 16  1  0
 16 17  2  0
 16 18  1  0
 18 19  1  0
 19 20  2  0
 20 21  1  0
 21 22  2  0
 22 23  1  0
  7  3  1  0
 23 19  1  0
  1 24  1  0
  1 25  1  0
  1 26  1  0
  4 27  1  0
  5 28  1  0
 11 29  1  0
 11 30  1  0
 11 31  1  0
 12 32  1  0
 12 33  1  0
 13 34  1  0
 13 35  1  0
 15 36  1  0
 15 37  1  0
 15 38  1  0
 18 39  1  0
 18 40  1  0
 20 41  1  0
 21 42  1  0
 23 43  1  0
M  END
>  <Energy>  (830) 
987.77505380300931

>  <compound_id>  (830) 
13514

>  <target_id>  (830) 
1

>  <reference_id>  (830) 
96

>  <inspiration_ids>  (830) 
[96, 122]

>  <energy_score>  (830) 
870.4152928353822

>  <distance_score>  (830) 
12.549461042285136

>  <path>  (830) 
/opt/xchem-fragalysis-2/maxwin/BulkDock/SCRATCH/511016/C13514-P96/C13514-P96.minimised.mol

>  <scratch_subdir>  (830) 
/opt/xchem-fragalysis-2/maxwin/BulkDock/SCRATCH/511016/C13514-P96

>  <fragmenstein_runtime>  (830) 
32.40528416633606

>  <fragmenstein_outcome>  (830) 
too moved

>  <fragmenstein_mode>  (830) 
expansion

>  <fragmenstein_error>  (830) 


$$$$
C13514-P122
     RDKit          3D

 43 44  0  0  0  0  0  0  0  0999 V2000
   -4.5464  -21.9609   20.3753 C   0  0  0  0  0  0  0  0  0  0  0  0
   -3.5699  -20.9219   20.4280 O   0  0  0  0  0  0  0  0  0  0  0  0
   -3.8786  -19.7520   19.7740 C   0  0  0  0  0  0  0  0  0  0  0  0
   -5.1118  -19.5091   19.2369 C   0  0  0  0  0  0  0  0  0  0  0  0
   -5.0364  -18.2248   18.8631 N   0  0  0  0  0  0  0  0  0  0  0  0
   -3.8164  -17.6807   18.8225 N   0  0  0  0  0  0  0  0  0  0  0  0
   -3.0508  -18.4423   19.6350 C   0  0  0  0  0  0  0  0  0  0  0  0
   -1.5953  -17.7926   20.3465 C   0  0  0  0  0  0  0  0  0  0  0  0
   -1.0918  -18.1632   21.3557 O   0  0  0  0  0  0  0  0  0  0  0  0
   -1.1806  -16.8894   19.4447 N   0  0  0  0  0  0  0  0  0  0  0  0
   -1.7009  -15.6099   19.7786 C   0  0  0  0  0  0  0  0  0  0  0  0
    0.6175  -15.8225   19.2709 C   0  0  0  0  0  0  0  0  0  0  0  0
    1.6713  -14.0666   18.1565 C   0  0  0  0  0  0  0  0  0  0  0  0
    2.9008  -12.2327   17.8780 N   0  0  0  0  0  0  0  0  0  0  0  0
    3.7638  -13.3999   19.0007 C   0  0  0  0  0  0  0  0  0  0  0  0
    2.3115  -10.2276   18.1277 C   0  0  0  0  0  0  0  0  0  0  0  0
    2.4859   -9.8838   19.1842 O   0  0  0  0  0  0  0  0  0  0  0  0
    1.8580   -8.9082   17.3246 C   0  0  0  0  0  0  0  0  0  0  0  0
    2.9836   -7.5719   18.3333 C   0  0  0  0  0  0  0  0  0  0  0  0
    2.6534   -6.3565   19.6230 C   0  0  0  0  0  0  0  0  0  0  0  0
    4.0425   -5.5385   19.9010 C   0  0  0  0  0  0  0  0  0  0  0  0
    5.0420   -5.8939   19.0328 N   0  0  0  0  0  0  0  0  0  0  0  0
    4.6021   -7.0487   18.1834 N   0  0  0  0  0  0  0  0  0  0  0  0
   -4.1403  -22.8228   20.9134 H   0  0  0  0  0  0  0  0  0  0  0  0
   -4.7332  -22.2718   19.3418 H   0  0  0  0  0  0  0  0  0  0  0  0
   -5.4791  -21.6706   20.8693 H   0  0  0  0  0  0  0  0  0  0  0  0
   -6.0314  -20.0712   19.1856 H   0  0  0  0  0  0  0  0  0  0  0  0
   -5.8095  -17.6601   18.5609 H   0  0  0  0  0  0  0  0  0  0  0  0
   -1.8017  -15.1214   20.7272 H   0  0  0  0  0  0  0  0  0  0  0  0
   -1.8227  -14.9908   18.8917 H   0  0  0  0  0  0  0  0  0  0  0  0
   -2.7332  -15.9252   19.8865 H   0  0  0  0  0  0  0  0  0  0  0  0
    0.8685  -15.9302   20.3524 H   0  0  0  0  0  0  0  0  0  0  0  0
   -0.2228  -15.2023   18.9330 H   0  0  0  0  0  0  0  0  0  0  0  0
    2.4072  -14.7768   17.7426 H   0  0  0  0  0  0  0  0  0  0  0  0
    0.9621  -13.9129   17.3402 H   0  0  0  0  0  0  0  0  0  0  0  0
    4.4901  -12.8618   19.6169 H   0  0  0  0  0  0  0  0  0  0  0  0
    4.2392  -14.1247   18.3359 H   0  0  0  0  0  0  0  0  0  0  0  0
    3.0730  -14.1374   19.4381 H   0  0  0  0  0  0  0  0  0  0  0  0
    2.3209   -8.2828   16.5470 H   0  0  0  0  0  0  0  0  0  0  0  0
    0.8771   -8.5561   17.6515 H   0  0  0  0  0  0  0  0  0  0  0  0
    1.7356   -6.2881   20.2129 H   0  0  0  0  0  0  0  0  0  0  0  0
    4.1790   -4.7735   20.6528 H   0  0  0  0  0  0  0  0  0  0  0  0
    5.3202   -7.7566   18.1375 H   0  0  0  0  0  0  0  0  0  0  0  0
  1  2  1  0
  2  3  1  0
  3  4  2  0
  4  5  1  0
  5  6  1  0
  6  7  2  0
  7  8  1  0
  8  9  2  0
  8 10  1  0
 10 11  1  0
 10 12  1  0
 12 13  1  0
 13 14  1  0
 14 15  1  0
 14 16  1  0
 16 17  2  0
 16 18  1  0
 18 19  1  0
 19 20  2  0
 20 21  1  0
 21 22  2  0
 22 23  1  0
  7  3  1  0
 23 19  1  0
  1 24  1  0
  1 25  1  0
  1 26  1  0
  4 27  1  0
  5 28  1  0
 11 29  1  0
 11 30  1  0
 11 31  1  0
 12 32  1  0
 12 33  1  0
 13 34  1  0
 13 35  1  0
 15 36  1  0
 15 37  1  0
 15 38  1  0
 18 39  1  0
 18 40  1  0
 20 41  1  0
 21 42  1  0
 23 43  1  0
M  END
>  <Energy>  (831) 
1416.1193135651201

>  <compound_id>  (831) 
13514

>  <target_id>  (831) 
1

>  <reference_id>  (831) 
122

>  <inspiration_ids>  (831) 
[96, 122]

>  <energy_score>  (831) 
1298.7595525975114

>  <distance_score>  (831) 
11.862054554201658

>  <path>  (831) 
/opt/xchem-fragalysis-2/maxwin/BulkDock/SCRATCH/511016/C13514-P122/C13514-P122.minimised.mol

>  <scratch_subdir>  (831) 
/opt/xchem-fragalysis-2/maxwin/BulkDock/SCRATCH/511016/C13514-P122

>  <fragmenstein_runtime>  (831) 
27.029112100601196

>  <fragmenstein_outcome>  (831) 
too moved

>  <fragmenstein_mode>  (831) 
expansion

>  <fragmenstein_error>  (831) 


$$$$
C13515-P96
     RDKit          3D

 42 43  0  0  0  0  0  0  0  0999 V2000
    3.4453  -22.2453   19.0722 C   0  0  0  0  0  0  0  0  0  0  0  0
    3.4889  -20.8480   19.7036 C   0  0  0  0  0  0  0  0  0  0  0  0
    2.9378  -20.7705   21.1068 N   0  0  0  0  0  0  0  0  0  0  0  0
    4.4606  -20.8415   21.4642 C   0  0  0  0  0  0  0  0  0  0  0  0
    5.2027  -19.4488   21.6101 C   0  0  0  0  0  0  0  0  0  0  0  0
    6.0096  -18.8594   20.5196 N   0  0  0  0  0  0  0  0  0  0  0  0
    7.4579  -18.5756   20.4320 C   0  0  0  0  0  0  0  0  0  0  0  0
    8.3506  -18.8281   21.1956 O   0  0  0  0  0  0  0  0  0  0  0  0
    7.8057  -17.8569   19.0879 C   0  0  0  0  0  0  0  0  0  0  0  0
    9.0412  -17.0276   18.9539 N   0  0  0  0  0  0  0  0  0  0  0  0
    9.9291  -16.5634   19.8946 C   0  0  0  0  0  0  0  0  0  0  0  0
   10.8437  -15.7708   19.2400 C   0  0  0  0  0  0  0  0  0  0  0  0
   12.1416  -14.9086   19.8921 Cl  0  0  0  0  0  0  0  0  0  0  0  0
   10.4487  -15.8005   17.8978 C   0  0  0  0  0  0  0  0  0  0  0  0
    9.3709  -16.5703   17.7042 N   0  0  0  0  0  0  0  0  0  0  0  0
    2.1865  -21.7499   21.8899 C   0  0  0  0  0  0  0  0  0  0  0  0
    1.8987  -22.8963   21.6422 O   0  0  0  0  0  0  0  0  0  0  0  0
    1.6200  -21.0990   23.1888 C   0  0  0  0  0  0  0  0  0  0  0  0
    0.3076  -21.6935   23.7325 C   0  0  0  0  0  0  0  0  0  0  0  0
   -0.3206  -21.5288   24.9593 C   0  0  0  0  0  0  0  0  0  0  0  0
   -1.5285  -22.2468   24.8782 C   0  0  0  0  0  0  0  0  0  0  0  0
   -1.6605  -22.8618   23.7045 N   0  0  0  0  0  0  0  0  0  0  0  0
   -0.5346  -22.5273   23.0341 N   0  0  0  0  0  0  0  0  0  0  0  0
    2.4206  -22.6306   19.0490 H   0  0  0  0  0  0  0  0  0  0  0  0
    3.7998  -22.1958   18.0375 H   0  0  0  0  0  0  0  0  0  0  0  0
    4.0661  -22.9678   19.6092 H   0  0  0  0  0  0  0  0  0  0  0  0
    2.7385  -20.2826   19.1437 H   0  0  0  0  0  0  0  0  0  0  0  0
    4.3973  -20.3045   19.4245 H   0  0  0  0  0  0  0  0  0  0  0  0
    4.4360  -21.2082   22.5032 H   0  0  0  0  0  0  0  0  0  0  0  0
    5.0692  -21.6212   20.9778 H   0  0  0  0  0  0  0  0  0  0  0  0
    4.4422  -18.7061   21.8615 H   0  0  0  0  0  0  0  0  0  0  0  0
    5.8890  -19.5359   22.4602 H   0  0  0  0  0  0  0  0  0  0  0  0
    5.5342  -18.4248   19.7261 H   0  0  0  0  0  0  0  0  0  0  0  0
    7.9145  -18.6423   18.3304 H   0  0  0  0  0  0  0  0  0  0  0  0
    6.9916  -17.1898   18.7939 H   0  0  0  0  0  0  0  0  0  0  0  0
    9.8185  -16.8155   20.9394 H   0  0  0  0  0  0  0  0  0  0  0  0
   10.8982  -15.3061   17.0474 H   0  0  0  0  0  0  0  0  0  0  0  0
    2.3897  -21.2026   23.9626 H   0  0  0  0  0  0  0  0  0  0  0  0
    1.4592  -20.0299   23.0120 H   0  0  0  0  0  0  0  0  0  0  0  0
    0.0405  -20.9386   25.7880 H   0  0  0  0  0  0  0  0  0  0  0  0
   -2.3112  -22.3488   25.6177 H   0  0  0  0  0  0  0  0  0  0  0  0
   -0.3809  -22.9197   22.1085 H   0  0  0  0  0  0  0  0  0  0  0  0
  1  2  1  0
  2  3  1  0
  3  4  1  0
  4  5  1  0
  5  6  1  0
  6  7  1  0
  7  8  2  0
  7  9  1  0
  9 10  1  0
 10 11  1  0
 11 12  2  0
 12 13  1  0
 12 14  1  0
 14 15  2  0
  3 16  1  0
 16 17  2  0
 16 18  1  0
 18 19  1  0
 19 20  2  0
 20 21  1  0
 21 22  2  0
 22 23  1  0
 15 10  1  0
 23 19  1  0
  1 24  1  0
  1 25  1  0
  1 26  1  0
  2 27  1  0
  2 28  1  0
  4 29  1  0
  4 30  1  0
  5 31  1  0
  5 32  1  0
  6 33  1  0
  9 34  1  0
  9 35  1  0
 11 36  1  0
 14 37  1  0
 18 38  1  0
 18 39  1  0
 20 40  1  0
 21 41  1  0
 23 42  1  0
M  END
>  <Energy>  (832) 
136.133437500903

>  <compound_id>  (832) 
13515

>  <target_id>  (832) 
1

>  <reference_id>  (832) 
96

>  <inspiration_ids>  (832) 
[96, 122]

>  <energy_score>  (832) 
62.517230731322115

>  <distance_score>  (832) 
13.136560226145244

>  <path>  (832) 
/opt/xchem-fragalysis-2/maxwin/BulkDock/SCRATCH/511016/C13515-P96/C13515-P96.minimised.mol

>  <scratch_subdir>  (832) 
/opt/xchem-fragalysis-2/maxwin/BulkDock/SCRATCH/511016/C13515-P96

>  <fragmenstein_runtime>  (832) 
32.078641414642334

>  <fragmenstein_outcome>  (832) 
too moved

>  <fragmenstein_mode>  (832) 
expansion

>  <fragmenstein_error>  (832) 


$$$$
C13515-P122
     RDKit          3D

 42 43  0  0  0  0  0  0  0  0999 V2000
   -0.3293  -16.0606   21.6536 C   0  0  0  0  0  0  0  0  0  0  0  0
   -0.2814  -17.5026   21.6308 C   0  0  0  0  0  0  0  0  0  0  0  0
   -1.3609  -18.2861   21.8353 N   0  0  0  0  0  0  0  0  0  0  0  0
   -0.8647  -17.8949   20.1081 C   0  0  0  0  0  0  0  0  0  0  0  0
    0.6665  -16.5115   19.7446 C   0  0  0  0  0  0  0  0  0  0  0  0
    2.1143  -15.0577   20.0059 N   0  0  0  0  0  0  0  0  0  0  0  0
    3.3579  -14.3403   18.8309 C   0  0  0  0  0  0  0  0  0  0  0  0
    3.4779  -14.7831   17.7446 O   0  0  0  0  0  0  0  0  0  0  0  0
    4.5494  -12.7163   19.3463 C   0  0  0  0  0  0  0  0  0  0  0  0
    5.6191  -11.0869   18.8718 N   0  0  0  0  0  0  0  0  0  0  0  0
    5.1372   -9.2919   18.7659 C   0  0  0  0  0  0  0  0  0  0  0  0
    5.8027   -7.8523   19.2339 C   0  0  0  0  0  0  0  0  0  0  0  0
    7.4131   -6.8552   19.8510 Cl  0  0  0  0  0  0  0  0  0  0  0  0
    5.0871   -7.9184   18.2154 C   0  0  0  0  0  0  0  0  0  0  0  0
    4.7683   -9.6289   17.9170 N   0  0  0  0  0  0  0  0  0  0  0  0
   -1.5271  -19.9298   22.8670 C   0  0  0  0  0  0  0  0  0  0  0  0
   -0.5886  -20.4178   23.5485 O   0  0  0  0  0  0  0  0  0  0  0  0
   -2.8670  -21.0105   22.8979 C   0  0  0  0  0  0  0  0  0  0  0  0
   -2.6981  -22.2934   23.7216 C   0  0  0  0  0  0  0  0  0  0  0  0
   -1.9572  -22.6178   24.8408 C   0  0  0  0  0  0  0  0  0  0  0  0
   -2.4884  -23.8334   25.2988 C   0  0  0  0  0  0  0  0  0  0  0  0
   -3.4845  -24.2653   24.5303 N   0  0  0  0  0  0  0  0  0  0  0  0
   -3.6084  -23.3194   23.5913 N   0  0  0  0  0  0  0  0  0  0  0  0
   -0.6913  -15.2176   22.3116 H   0  0  0  0  0  0  0  0  0  0  0  0
    0.6056  -15.6555   21.5030 H   0  0  0  0  0  0  0  0  0  0  0  0
   -1.1100  -15.9003   20.8593 H   0  0  0  0  0  0  0  0  0  0  0  0
    0.6036  -17.9168   21.1740 H   0  0  0  0  0  0  0  0  0  0  0  0
    0.0279  -18.1967   22.3336 H   0  0  0  0  0  0  0  0  0  0  0  0
   -1.4724  -18.2244   19.2046 H   0  0  0  0  0  0  0  0  0  0  0  0
   -1.7193  -17.1633   20.0050 H   0  0  0  0  0  0  0  0  0  0  0  0
    0.9878  -17.1944   18.8873 H   0  0  0  0  0  0  0  0  0  0  0  0
   -0.1036  -15.8050   19.5494 H   0  0  0  0  0  0  0  0  0  0  0  0
    2.2174  -14.6051   20.9049 H   0  0  0  0  0  0  0  0  0  0  0  0
    5.5180  -13.2359   19.4042 H   0  0  0  0  0  0  0  0  0  0  0  0
    4.4959  -12.5114   20.4247 H   0  0  0  0  0  0  0  0  0  0  0  0
    6.1762  -10.2346   18.9444 H   0  0  0  0  0  0  0  0  0  0  0  0
    4.8197   -7.0748   17.5595 H   0  0  0  0  0  0  0  0  0  0  0  0
   -3.5825  -20.6469   23.6599 H   0  0  0  0  0  0  0  0  0  0  0  0
   -3.2260  -21.3191   21.9068 H   0  0  0  0  0  0  0  0  0  0  0  0
   -1.1732  -22.0332   25.3018 H   0  0  0  0  0  0  0  0  0  0  0  0
   -2.1922  -24.4166   26.1603 H   0  0  0  0  0  0  0  0  0  0  0  0
   -4.3616  -23.4159   22.9162 H   0  0  0  0  0  0  0  0  0  0  0  0
  1  2  1  0
  2  3  1  0
  3  4  1  0
  4  5  1  0
  5  6  1  0
  6  7  1  0
  7  8  2  0
  7  9  1  0
  9 10  1  0
 10 11  1  0
 11 12  2  0
 12 13  1  0
 12 14  1  0
 14 15  2  0
  3 16  1  0
 16 17  2  0
 16 18  1  0
 18 19  1  0
 19 20  2  0
 20 21  1  0
 21 22  2  0
 22 23  1  0
 15 10  1  0
 23 19  1  0
  1 24  1  0
  1 25  1  0
  1 26  1  0
  2 27  1  0
  2 28  1  0
  4 29  1  0
  4 30  1  0
  5 31  1  0
  5 32  1  0
  6 33  1  0
  9 34  1  0
  9 35  1  0
 11 36  1  0
 14 37  1  0
 18 38  1  0
 18 39  1  0
 20 40  1  0
 21 41  1  0
 23 42  1  0
M  END
>  <Energy>  (833) 
1822.9606766673594

>  <compound_id>  (833) 
13515

>  <target_id>  (833) 
1

>  <reference_id>  (833) 
122

>  <inspiration_ids>  (833) 
[96, 122]

>  <energy_score>  (833) 
1749.344469897763

>  <distance_score>  (833) 
9.840770839461248

>  <path>  (833) 
/opt/xchem-fragalysis-2/maxwin/BulkDock/SCRATCH/511016/C13515-P122/C13515-P122.minimised.mol

>  <scratch_subdir>  (833) 
/opt/xchem-fragalysis-2/maxwin/BulkDock/SCRATCH/511016/C13515-P122

>  <fragmenstein_runtime>  (833) 
41.103503465652466

>  <fragmenstein_outcome>  (833) 
too moved

>  <fragmenstein_mode>  (833) 
expansion

>  <fragmenstein_error>  (833) 


$$$$
C13516-P96
     RDKit          3D

 39 40  0  0  0  0  0  0  0  0999 V2000
   -2.8739  -13.9762   23.3994 C   0  0  0  0  0  0  0  0  0  0  0  0
   -2.2300  -12.6953   24.0207 C   0  0  0  0  0  0  0  0  0  0  0  0
   -0.4717  -12.7374   22.9822 C   0  0  0  0  0  0  0  0  0  0  0  0
    0.7670  -11.7684   22.1569 N   0  0  0  0  0  0  0  0  0  0  0  0
    2.0686  -12.1370   21.5976 C   0  0  0  0  0  0  0  0  0  0  0  0
    2.6629  -13.1638   21.6296 O   0  0  0  0  0  0  0  0  0  0  0  0
    2.3855  -10.8636   20.8775 C   0  0  0  0  0  0  0  0  0  0  0  0
    3.0658  -10.7615   19.5423 N   0  0  0  0  0  0  0  0  0  0  0  0
    4.0332   -9.8567   19.1163 C   0  0  0  0  0  0  0  0  0  0  0  0
    4.6799  -10.3424   18.0474 C   0  0  0  0  0  0  0  0  0  0  0  0
    5.5136   -9.4157   17.0305 Cl  0  0  0  0  0  0  0  0  0  0  0  0
    4.1305  -11.5402   17.8683 C   0  0  0  0  0  0  0  0  0  0  0  0
    3.0753  -11.6880   18.6423 N   0  0  0  0  0  0  0  0  0  0  0  0
   -2.6097  -13.3149   25.6933 N   0  0  0  0  0  0  0  0  0  0  0  0
   -3.5167  -12.8055   26.7315 C   0  0  0  0  0  0  0  0  0  0  0  0
   -4.1812  -11.8005   26.7714 O   0  0  0  0  0  0  0  0  0  0  0  0
   -3.6193  -13.8554   27.8706 C   0  0  0  0  0  0  0  0  0  0  0  0
   -4.4583  -15.0757   27.5430 C   0  0  0  0  0  0  0  0  0  0  0  0
   -4.1492  -16.4254   27.5208 C   0  0  0  0  0  0  0  0  0  0  0  0
   -5.3666  -17.0855   27.2724 C   0  0  0  0  0  0  0  0  0  0  0  0
   -6.3784  -16.2316   27.1281 N   0  0  0  0  0  0  0  0  0  0  0  0
   -5.8132  -15.0228   27.3100 N   0  0  0  0  0  0  0  0  0  0  0  0
   -3.6828  -13.9283   22.6685 H   0  0  0  0  0  0  0  0  0  0  0  0
   -2.1011  -14.1689   22.7270 H   0  0  0  0  0  0  0  0  0  0  0  0
   -3.1182  -14.7726   24.1056 H   0  0  0  0  0  0  0  0  0  0  0  0
   -2.8278  -11.8051   23.8468 H   0  0  0  0  0  0  0  0  0  0  0  0
   -1.0238  -12.7120   22.0431 H   0  0  0  0  0  0  0  0  0  0  0  0
    0.0494  -11.9988   23.7271 H   0  0  0  0  0  0  0  0  0  0  0  0
    0.6069  -10.7730   22.0110 H   0  0  0  0  0  0  0  0  0  0  0  0
    2.9605  -10.6746   21.7114 H   0  0  0  0  0  0  0  0  0  0  0  0
    1.6694  -10.0972   20.9485 H   0  0  0  0  0  0  0  0  0  0  0  0
    4.1824   -9.0622   19.8234 H   0  0  0  0  0  0  0  0  0  0  0  0
    4.3319  -12.3470   17.2162 H   0  0  0  0  0  0  0  0  0  0  0  0
   -2.2835  -14.2360   25.9629 H   0  0  0  0  0  0  0  0  0  0  0  0
   -2.6046  -14.1636   28.1514 H   0  0  0  0  0  0  0  0  0  0  0  0
   -4.0430  -13.3542   28.7497 H   0  0  0  0  0  0  0  0  0  0  0  0
   -3.1821  -16.8757   27.6948 H   0  0  0  0  0  0  0  0  0  0  0  0
   -5.5551  -18.1471   27.1936 H   0  0  0  0  0  0  0  0  0  0  0  0
   -6.4109  -14.2016   27.2712 H   0  0  0  0  0  0  0  0  0  0  0  0
  1  2  1  0
  2  3  1  0
  3  4  1  0
  4  5  1  0
  5  6  2  0
  5  7  1  0
  7  8  1  0
  8  9  1  0
  9 10  2  0
 10 11  1  0
 10 12  1  0
 12 13  2  0
  2 14  1  0
 14 15  1  0
 15 16  2  0
 15 17  1  0
 17 18  1  0
 18 19  2  0
 19 20  1  0
 20 21  2  0
 21 22  1  0
 13  8  1  0
 22 18  1  0
  1 23  1  0
  1 24  1  0
  1 25  1  0
  2 26  1  0
  3 27  1  0
  3 28  1  0
  4 29  1  0
  7 30  1  0
  7 31  1  0
  9 32  1  0
 12 33  1  0
 14 34  1  0
 17 35  1  0
 17 36  1  0
 19 37  1  0
 20 38  1  0
 22 39  1  0
M  END
>  <Energy>  (834) 
328.64450916905344

>  <compound_id>  (834) 
13516

>  <target_id>  (834) 
1

>  <reference_id>  (834) 
96

>  <inspiration_ids>  (834) 
[96, 122]

>  <energy_score>  (834) 
269.08720908402825

>  <distance_score>  (834) 
11.371939929408487

>  <path>  (834) 
/opt/xchem-fragalysis-2/maxwin/BulkDock/SCRATCH/511016/C13516-P96/C13516-P96.minimised.mol

>  <scratch_subdir>  (834) 
/opt/xchem-fragalysis-2/maxwin/BulkDock/SCRATCH/511016/C13516-P96

>  <fragmenstein_runtime>  (834) 
28.774333477020264

>  <fragmenstein_outcome>  (834) 
too moved

>  <fragmenstein_mode>  (834) 
expansion

>  <fragmenstein_error>  (834) 


$$$$
C13516-P122
     RDKit          3D

 39 40  0  0  0  0  0  0  0  0999 V2000
   -2.4811  -10.7831   17.9929 C   0  0  0  0  0  0  0  0  0  0  0  0
   -1.9173  -12.1538   18.5914 C   0  0  0  0  0  0  0  0  0  0  0  0
   -2.1836  -11.7269   20.1406 C   0  0  0  0  0  0  0  0  0  0  0  0
   -1.5220  -10.5013   20.6479 N   0  0  0  0  0  0  0  0  0  0  0  0
   -1.9562   -9.1111   20.6499 C   0  0  0  0  0  0  0  0  0  0  0  0
   -2.9960   -8.6164   20.3134 O   0  0  0  0  0  0  0  0  0  0  0  0
   -0.8008   -8.2158   21.1724 C   0  0  0  0  0  0  0  0  0  0  0  0
   -0.4020   -7.0470   20.3708 N   0  0  0  0  0  0  0  0  0  0  0  0
   -0.7772   -6.6641   19.1145 C   0  0  0  0  0  0  0  0  0  0  0  0
   -0.2760   -5.3958   18.9286 C   0  0  0  0  0  0  0  0  0  0  0  0
   -0.5637   -4.3417   17.6364 Cl  0  0  0  0  0  0  0  0  0  0  0  0
    0.5031   -5.1418   20.0660 C   0  0  0  0  0  0  0  0  0  0  0  0
    0.4442   -6.1500   20.9418 N   0  0  0  0  0  0  0  0  0  0  0  0
   -1.9385  -13.9122   18.1829 N   0  0  0  0  0  0  0  0  0  0  0  0
   -2.0377  -15.3219   19.2264 C   0  0  0  0  0  0  0  0  0  0  0  0
   -2.0106  -15.3184   20.4196 O   0  0  0  0  0  0  0  0  0  0  0  0
   -2.3510  -16.8647   18.6720 C   0  0  0  0  0  0  0  0  0  0  0  0
   -3.4201  -17.7680   19.4246 C   0  0  0  0  0  0  0  0  0  0  0  0
   -4.7326  -18.1014   19.1005 C   0  0  0  0  0  0  0  0  0  0  0  0
   -5.1378  -19.0615   20.0398 C   0  0  0  0  0  0  0  0  0  0  0  0
   -4.1351  -19.4213   20.8337 N   0  0  0  0  0  0  0  0  0  0  0  0
   -3.1087  -18.6440   20.4191 N   0  0  0  0  0  0  0  0  0  0  0  0
   -3.2003  -10.3213   18.6848 H   0  0  0  0  0  0  0  0  0  0  0  0
   -1.7309  -10.0075   17.8784 H   0  0  0  0  0  0  0  0  0  0  0  0
   -3.1679  -10.7976   17.1676 H   0  0  0  0  0  0  0  0  0  0  0  0
   -2.9628  -12.3642   18.4185 H   0  0  0  0  0  0  0  0  0  0  0  0
   -3.2567  -11.5977   20.3143 H   0  0  0  0  0  0  0  0  0  0  0  0
   -1.8305  -12.5440   20.7129 H   0  0  0  0  0  0  0  0  0  0  0  0
   -0.5500  -10.5438   20.9211 H   0  0  0  0  0  0  0  0  0  0  0  0
   -1.1211   -7.8235   22.1453 H   0  0  0  0  0  0  0  0  0  0  0  0
    0.1230   -8.7796   21.3278 H   0  0  0  0  0  0  0  0  0  0  0  0
   -1.4361   -7.2684   18.5082 H   0  0  0  0  0  0  0  0  0  0  0  0
    1.0939   -4.2679   20.3071 H   0  0  0  0  0  0  0  0  0  0  0  0
   -2.0698  -14.1982   17.2125 H   0  0  0  0  0  0  0  0  0  0  0  0
   -1.5802  -17.6089   18.5500 H   0  0  0  0  0  0  0  0  0  0  0  0
   -3.0353  -16.7075   17.8495 H   0  0  0  0  0  0  0  0  0  0  0  0
   -5.3226  -17.6815   18.2977 H   0  0  0  0  0  0  0  0  0  0  0  0
   -6.1057  -19.5255   20.1443 H   0  0  0  0  0  0  0  0  0  0  0  0
   -2.1925  -18.7845   20.8277 H   0  0  0  0  0  0  0  0  0  0  0  0
  1  2  1  0
  2  3  1  0
  3  4  1  0
  4  5  1  0
  5  6  2  0
  5  7  1  0
  7  8  1  0
  8  9  1  0
  9 10  2  0
 10 11  1  0
 10 12  1  0
 12 13  2  0
  2 14  1  0
 14 15  1  0
 15 16  2  0
 15 17  1  0
 17 18  1  0
 18 19  2  0
 19 20  1  0
 20 21  2  0
 21 22  1  0
 13  8  1  0
 22 18  1  0
  1 23  1  0
  1 24  1  0
  1 25  1  0
  2 26  1  0
  3 27  1  0
  3 28  1  0
  4 29  1  0
  7 30  1  0
  7 31  1  0
  9 32  1  0
 12 33  1  0
 14 34  1  0
 17 35  1  0
 17 36  1  0
 19 37  1  0
 20 38  1  0
 22 39  1  0
M  END
>  <Energy>  (835) 
239.10808977875962

>  <compound_id>  (835) 
13516

>  <target_id>  (835) 
1

>  <reference_id>  (835) 
122

>  <inspiration_ids>  (835) 
[96, 122]

>  <energy_score>  (835) 
179.5507896937347

>  <distance_score>  (835) 
13.068597104082727

>  <path>  (835) 
/opt/xchem-fragalysis-2/maxwin/BulkDock/SCRATCH/511016/C13516-P122/C13516-P122.minimised.mol

>  <scratch_subdir>  (835) 
/opt/xchem-fragalysis-2/maxwin/BulkDock/SCRATCH/511016/C13516-P122

>  <fragmenstein_runtime>  (835) 
31.184157848358154

>  <fragmenstein_outcome>  (835) 
too moved

>  <fragmenstein_mode>  (835) 
expansion

>  <fragmenstein_error>  (835) 


$$$$
C13517-P96
     RDKit          3D

 42 43  0  0  0  0  0  0  0  0999 V2000
   -8.2864  -11.7521   21.9572 C   0  0  0  0  0  0  0  0  0  0  0  0
   -9.1559  -11.2525   20.8047 C   0  0  0  0  0  0  0  0  0  0  0  0
  -10.5598  -10.9577   21.4006 C   0  0  0  0  0  0  0  0  0  0  0  0
   -9.3481  -12.2673   19.6373 C   0  0  0  0  0  0  0  0  0  0  0  0
   -9.3011  -13.7196   19.8393 N   0  0  0  0  0  0  0  0  0  0  0  0
  -10.0056  -14.5776   20.7848 C   0  0  0  0  0  0  0  0  0  0  0  0
  -10.7425  -14.3035   21.6904 O   0  0  0  0  0  0  0  0  0  0  0  0
   -9.7264  -16.0606   20.3902 C   0  0  0  0  0  0  0  0  0  0  0  0
  -10.2339  -17.1365   21.3179 C   0  0  0  0  0  0  0  0  0  0  0  0
  -10.0367  -18.5067   21.2909 C   0  0  0  0  0  0  0  0  0  0  0  0
  -10.8348  -19.0202   22.3247 C   0  0  0  0  0  0  0  0  0  0  0  0
  -11.4332  -18.0471   23.0197 N   0  0  0  0  0  0  0  0  0  0  0  0
  -11.0880  -16.9179   22.3653 N   0  0  0  0  0  0  0  0  0  0  0  0
   -8.6389   -9.8710   20.2415 C   0  0  0  0  0  0  0  0  0  0  0  0
   -7.2345   -9.6069   19.9266 N   0  0  0  0  0  0  0  0  0  0  0  0
   -6.6312   -8.8517   18.8509 C   0  0  0  0  0  0  0  0  0  0  0  0
   -7.1247   -8.3198   17.9024 O   0  0  0  0  0  0  0  0  0  0  0  0
   -5.1862   -8.6308   19.0223 C   0  0  0  0  0  0  0  0  0  0  0  0
   -4.6393   -7.9597   20.0885 N   0  0  0  0  0  0  0  0  0  0  0  0
   -3.3153   -7.7318   20.0076 N   0  0  0  0  0  0  0  0  0  0  0  0
   -3.0109   -8.1364   18.7713 C   0  0  0  0  0  0  0  0  0  0  0  0
   -4.1290   -8.7108   18.1230 C   0  0  0  0  0  0  0  0  0  0  0  0
   -4.1644   -9.3308   16.5438 Cl  0  0  0  0  0  0  0  0  0  0  0  0
   -7.3143  -12.0843   21.6164 H   0  0  0  0  0  0  0  0  0  0  0  0
   -8.7485  -12.5941   22.4820 H   0  0  0  0  0  0  0  0  0  0  0  0
   -8.1220  -10.9615   22.6984 H   0  0  0  0  0  0  0  0  0  0  0  0
  -11.2313  -10.5339   20.6448 H   0  0  0  0  0  0  0  0  0  0  0  0
  -10.4972  -10.2368   22.2244 H   0  0  0  0  0  0  0  0  0  0  0  0
  -11.0341  -11.8588   21.7964 H   0  0  0  0  0  0  0  0  0  0  0  0
  -10.3023  -12.0743   19.1315 H   0  0  0  0  0  0  0  0  0  0  0  0
   -8.5784  -12.0764   18.8807 H   0  0  0  0  0  0  0  0  0  0  0  0
   -8.8300  -14.2991   19.1527 H   0  0  0  0  0  0  0  0  0  0  0  0
   -8.6481  -16.1972   20.2650 H   0  0  0  0  0  0  0  0  0  0  0  0
  -10.1941  -16.2189   19.4095 H   0  0  0  0  0  0  0  0  0  0  0  0
   -9.4336  -19.0643   20.5870 H   0  0  0  0  0  0  0  0  0  0  0  0
  -10.9818  -20.0539   22.6162 H   0  0  0  0  0  0  0  0  0  0  0  0
  -11.4649  -16.0215   22.6726 H   0  0  0  0  0  0  0  0  0  0  0  0
   -9.2158   -9.6081   19.3455 H   0  0  0  0  0  0  0  0  0  0  0  0
   -8.8755   -9.0937   20.9802 H   0  0  0  0  0  0  0  0  0  0  0  0
   -6.4952   -9.9870   20.5232 H   0  0  0  0  0  0  0  0  0  0  0  0
   -5.1389   -7.6027   20.8961 H   0  0  0  0  0  0  0  0  0  0  0  0
   -2.0045   -7.9894   18.4047 H   0  0  0  0  0  0  0  0  0  0  0  0
  1  2  1  0
  2  3  1  0
  2  4  1  0
  4  5  1  0
  5  6  1  0
  6  7  2  0
  6  8  1  0
  8  9  1  0
  9 10  2  0
 10 11  1  0
 11 12  2  0
 12 13  1  0
  2 14  1  0
 14 15  1  0
 15 16  1  0
 16 17  2  0
 16 18  1  0
 18 19  1  0
 19 20  1  0
 20 21  2  0
 21 22  1  0
 22 23  1  0
 13  9  1  0
 22 18  2  0
  1 24  1  0
  1 25  1  0
  1 26  1  0
  3 27  1  0
  3 28  1  0
  3 29  1  0
  4 30  1  0
  4 31  1  0
  5 32  1  0
  8 33  1  0
  8 34  1  0
 10 35  1  0
 11 36  1  0
 13 37  1  0
 14 38  1  0
 14 39  1  0
 15 40  1  0
 19 41  1  0
 21 42  1  0
M  END
>  <Energy>  (836) 
12.286023895507075

>  <compound_id>  (836) 
13517

>  <target_id>  (836) 
1

>  <reference_id>  (836) 
96

>  <inspiration_ids>  (836) 
[96, 122]

>  <energy_score>  (836) 
-6.077008840982899

>  <distance_score>  (836) 
14.23689601704958

>  <path>  (836) 
/opt/xchem-fragalysis-2/maxwin/BulkDock/SCRATCH/511016/C13517-P96/C13517-P96.minimised.mol

>  <scratch_subdir>  (836) 
/opt/xchem-fragalysis-2/maxwin/BulkDock/SCRATCH/511016/C13517-P96

>  <fragmenstein_runtime>  (836) 
34.740739822387695

>  <fragmenstein_outcome>  (836) 
too moved

>  <fragmenstein_mode>  (836) 
expansion

>  <fragmenstein_error>  (836) 


$$$$
C13517-P122
     RDKit          3D

 42 43  0  0  0  0  0  0  0  0999 V2000
    1.5020   -8.3621   18.6389 C   0  0  0  0  0  0  0  0  0  0  0  0
    1.7095   -8.2026   17.1653 C   0  0  0  0  0  0  0  0  0  0  0  0
    1.6415   -7.4534   15.7338 C   0  0  0  0  0  0  0  0  0  0  0  0
   -0.2464   -8.0633   17.2242 C   0  0  0  0  0  0  0  0  0  0  0  0
   -1.3294   -9.0241   17.6831 N   0  0  0  0  0  0  0  0  0  0  0  0
   -2.7267   -9.1747   17.2575 C   0  0  0  0  0  0  0  0  0  0  0  0
   -3.3588   -8.5801   16.4323 O   0  0  0  0  0  0  0  0  0  0  0  0
   -3.3499  -10.4008   18.0021 C   0  0  0  0  0  0  0  0  0  0  0  0
   -4.7285  -10.8897   17.5536 C   0  0  0  0  0  0  0  0  0  0  0  0
   -6.0204  -10.4260   17.7199 C   0  0  0  0  0  0  0  0  0  0  0  0
   -6.8730  -11.5071   17.4225 C   0  0  0  0  0  0  0  0  0  0  0  0
   -6.1914  -12.5335   16.9228 N   0  0  0  0  0  0  0  0  0  0  0  0
   -4.9351  -12.0418   16.8271 N   0  0  0  0  0  0  0  0  0  0  0  0
    3.5203   -7.3652   17.5153 C   0  0  0  0  0  0  0  0  0  0  0  0
    5.1282   -7.3843   18.5437 N   0  0  0  0  0  0  0  0  0  0  0  0
    6.3792   -6.5323   18.4679 C   0  0  0  0  0  0  0  0  0  0  0  0
    6.6460   -5.7281   17.6790 O   0  0  0  0  0  0  0  0  0  0  0  0
    7.6592   -6.6158   19.8994 C   0  0  0  0  0  0  0  0  0  0  0  0
    7.4594   -6.3781   21.2861 N   0  0  0  0  0  0  0  0  0  0  0  0
    8.0823   -5.3462   21.9628 N   0  0  0  0  0  0  0  0  0  0  0  0
    8.8844   -4.8741   21.0452 C   0  0  0  0  0  0  0  0  0  0  0  0
    9.1183   -6.0151   20.2701 C   0  0  0  0  0  0  0  0  0  0  0  0
   10.6604   -6.5774   21.4287 Cl  0  0  0  0  0  0  0  0  0  0  0  0
    1.8490   -7.4787   19.1147 H   0  0  0  0  0  0  0  0  0  0  0  0
    0.5581   -8.4604   19.1657 H   0  0  0  0  0  0  0  0  0  0  0  0
    2.0835   -9.2207   18.9112 H   0  0  0  0  0  0  0  0  0  0  0  0
    1.6546   -6.3607   15.7339 H   0  0  0  0  0  0  0  0  0  0  0  0
    2.4929   -7.7464   15.1161 H   0  0  0  0  0  0  0  0  0  0  0  0
    0.7941   -7.7309   15.1038 H   0  0  0  0  0  0  0  0  0  0  0  0
   -0.5799   -7.4768   18.0895 H   0  0  0  0  0  0  0  0  0  0  0  0
   -0.6439   -7.6055   16.3117 H   0  0  0  0  0  0  0  0  0  0  0  0
   -1.1499   -9.6496   18.4779 H   0  0  0  0  0  0  0  0  0  0  0  0
   -3.3298  -10.1784   19.0657 H   0  0  0  0  0  0  0  0  0  0  0  0
   -2.6591  -11.2467   17.9021 H   0  0  0  0  0  0  0  0  0  0  0  0
   -6.3161   -9.4492   18.0667 H   0  0  0  0  0  0  0  0  0  0  0  0
   -7.9496  -11.5702   17.5124 H   0  0  0  0  0  0  0  0  0  0  0  0
   -4.2373  -12.6300   16.3852 H   0  0  0  0  0  0  0  0  0  0  0  0
    3.7724   -6.7386   16.6700 H   0  0  0  0  0  0  0  0  0  0  0  0
    3.5182   -8.4331   17.7170 H   0  0  0  0  0  0  0  0  0  0  0  0
    5.2319   -8.0441   19.2871 H   0  0  0  0  0  0  0  0  0  0  0  0
    6.9021   -6.9429   21.9106 H   0  0  0  0  0  0  0  0  0  0  0  0
    9.5713   -4.1195   21.3831 H   0  0  0  0  0  0  0  0  0  0  0  0
  1  2  1  0
  2  3  1  0
  2  4  1  0
  4  5  1  0
  5  6  1  0
  6  7  2  0
  6  8  1  0
  8  9  1  0
  9 10  2  0
 10 11  1  0
 11 12  2  0
 12 13  1  0
  2 14  1  0
 14 15  1  0
 15 16  1  0
 16 17  2  0
 16 18  1  0
 18 19  1  0
 19 20  1  0
 20 21  2  0
 21 22  1  0
 22 23  1  0
 13  9  1  0
 22 18  2  0
  1 24  1  0
  1 25  1  0
  1 26  1  0
  3 27  1  0
  3 28  1  0
  3 29  1  0
  4 30  1  0
  4 31  1  0
  5 32  1  0
  8 33  1  0
  8 34  1  0
 10 35  1  0
 11 36  1  0
 13 37  1  0
 14 38  1  0
 14 39  1  0
 15 40  1  0
 19 41  1  0
 21 42  1  0
M  END
>  <Energy>  (837) 
575.04990552747495

>  <compound_id>  (837) 
13517

>  <target_id>  (837) 
1

>  <reference_id>  (837) 
122

>  <inspiration_ids>  (837) 
[96, 122]

>  <energy_score>  (837) 
556.6868727909763

>  <distance_score>  (837) 
14.115768711764426

>  <path>  (837) 
/opt/xchem-fragalysis-2/maxwin/BulkDock/SCRATCH/511016/C13517-P122/C13517-P122.minimised.mol

>  <scratch_subdir>  (837) 
/opt/xchem-fragalysis-2/maxwin/BulkDock/SCRATCH/511016/C13517-P122

>  <fragmenstein_runtime>  (837) 
42.738383531570435

>  <fragmenstein_outcome>  (837) 
too moved

>  <fragmenstein_mode>  (837) 
expansion

>  <fragmenstein_error>  (837) 


$$$$
C13518-P96
     RDKit          3D

 45 46  0  0  0  0  0  0  0  0999 V2000
    1.2679  -11.4680   22.2699 C   0  0  0  0  0  0  0  0  0  0  0  0
    1.1028  -13.3282   21.7408 C   0  0  0  0  0  0  0  0  0  0  0  0
    3.0390  -13.5653   21.7813 C   0  0  0  0  0  0  0  0  0  0  0  0
   -0.1206  -14.6906   20.4839 C   0  0  0  0  0  0  0  0  0  0  0  0
   -0.9816  -16.8019   21.0170 C   0  0  0  0  0  0  0  0  0  0  0  0
   -1.5464  -18.4863   22.4127 N   0  0  0  0  0  0  0  0  0  0  0  0
   -3.2516  -18.9740   23.5945 C   0  0  0  0  0  0  0  0  0  0  0  0
   -4.0890  -18.1272   23.5851 O   0  0  0  0  0  0  0  0  0  0  0  0
   -3.9165  -20.2171   24.5959 C   0  0  0  0  0  0  0  0  0  0  0  0
   -4.5175  -19.3811   25.8248 N   0  0  0  0  0  0  0  0  0  0  0  0
   -4.6359  -20.0800   26.9737 N   0  0  0  0  0  0  0  0  0  0  0  0
   -4.8820  -21.3019   26.5236 C   0  0  0  0  0  0  0  0  0  0  0  0
   -4.6803  -21.4736   25.1056 C   0  0  0  0  0  0  0  0  0  0  0  0
   -5.3285  -22.8711   24.2452 Cl  0  0  0  0  0  0  0  0  0  0  0  0
    1.2513  -13.7750   19.1196 N   0  0  0  0  0  0  0  0  0  0  0  0
    2.3721  -12.1640   19.2459 C   0  0  0  0  0  0  0  0  0  0  0  0
    2.3882  -11.3224   20.1902 O   0  0  0  0  0  0  0  0  0  0  0  0
    3.7575  -11.6393   17.8710 C   0  0  0  0  0  0  0  0  0  0  0  0
    5.0533  -10.1110   17.6877 C   0  0  0  0  0  0  0  0  0  0  0  0
    6.6462   -9.2794   16.7883 C   0  0  0  0  0  0  0  0  0  0  0  0
    7.6018   -9.4172   15.6193 C   0  0  0  0  0  0  0  0  0  0  0  0
    8.8881   -9.2562   16.1834 C   0  0  0  0  0  0  0  0  0  0  0  0
    8.7285   -8.2132   16.9863 N   0  0  0  0  0  0  0  0  0  0  0  0
    7.3506   -8.0274   16.7893 N   0  0  0  0  0  0  0  0  0  0  0  0
    0.9690  -11.3106   23.3207 H   0  0  0  0  0  0  0  0  0  0  0  0
    0.9497  -10.6331   21.6334 H   0  0  0  0  0  0  0  0  0  0  0  0
    2.3223  -11.2696   22.2620 H   0  0  0  0  0  0  0  0  0  0  0  0
    1.8394  -12.9055   21.0664 H   0  0  0  0  0  0  0  0  0  0  0  0
    3.9397  -13.6479   22.4479 H   0  0  0  0  0  0  0  0  0  0  0  0
    3.1897  -14.6467   21.8703 H   0  0  0  0  0  0  0  0  0  0  0  0
    3.1610  -12.7186   22.4522 H   0  0  0  0  0  0  0  0  0  0  0  0
   -1.0280  -14.0713   20.6566 H   0  0  0  0  0  0  0  0  0  0  0  0
   -1.6627  -16.9750   20.1457 H   0  0  0  0  0  0  0  0  0  0  0  0
   -0.1197  -17.3083   20.5935 H   0  0  0  0  0  0  0  0  0  0  0  0
   -0.8478  -19.2092   22.5378 H   0  0  0  0  0  0  0  0  0  0  0  0
   -4.4482  -18.3642   25.8507 H   0  0  0  0  0  0  0  0  0  0  0  0
   -5.4132  -21.8760   27.2375 H   0  0  0  0  0  0  0  0  0  0  0  0
    1.3807  -14.1934   18.2546 H   0  0  0  0  0  0  0  0  0  0  0  0
    4.5018  -12.4016   17.7036 H   0  0  0  0  0  0  0  0  0  0  0  0
    3.1596  -11.6403   16.9667 H   0  0  0  0  0  0  0  0  0  0  0  0
    5.7387  -10.6890   18.3148 H   0  0  0  0  0  0  0  0  0  0  0  0
    4.7837  -10.2878   16.6883 H   0  0  0  0  0  0  0  0  0  0  0  0
    7.4991   -9.9487   14.6843 H   0  0  0  0  0  0  0  0  0  0  0  0
    9.8644   -9.6234   15.8984 H   0  0  0  0  0  0  0  0  0  0  0  0
    6.9933   -7.0915   16.9262 H   0  0  0  0  0  0  0  0  0  0  0  0
  1  2  1  0
  2  3  1  0
  2  4  1  0
  4  5  1  0
  5  6  1  0
  6  7  1  0
  7  8  2  0
  7  9  1  0
  9 10  1  0
 10 11  1  0
 11 12  2  0
 12 13  1  0
 13 14  1  0
  4 15  1  0
 15 16  1  0
 16 17  2  0
 16 18  1  0
 18 19  1  0
 19 20  1  0
 20 21  2  0
 21 22  1  0
 22 23  2  0
 23 24  1  0
 13  9  2  0
 24 20  1  0
  1 25  1  0
  1 26  1  0
  1 27  1  0
  2 28  1  0
  3 29  1  0
  3 30  1  0
  3 31  1  0
  4 32  1  0
  5 33  1  0
  5 34  1  0
  6 35  1  0
 10 36  1  0
 12 37  1  0
 15 38  1  0
 18 39  1  0
 18 40  1  0
 19 41  1  0
 19 42  1  0
 21 43  1  0
 22 44  1  0
 24 45  1  0
M  END
>  <Energy>  (838) 
1846.7602980202962

>  <compound_id>  (838) 
13518

>  <target_id>  (838) 
1

>  <reference_id>  (838) 
96

>  <inspiration_ids>  (838) 
[96, 122]

>  <energy_score>  (838) 
1825.3785156356892

>  <distance_score>  (838) 
8.314036959781465

>  <path>  (838) 
/opt/xchem-fragalysis-2/maxwin/BulkDock/SCRATCH/511016/C13518-P96/C13518-P96.minimised.mol

>  <scratch_subdir>  (838) 
/opt/xchem-fragalysis-2/maxwin/BulkDock/SCRATCH/511016/C13518-P96

>  <fragmenstein_runtime>  (838) 
16.915468454360962

>  <fragmenstein_outcome>  (838) 
too moved

>  <fragmenstein_mode>  (838) 
expansion

>  <fragmenstein_error>  (838) 


$$$$
C13518-P122
     RDKit          3D

 45 46  0  0  0  0  0  0  0  0999 V2000
    2.8946  -13.1621   23.3732 C   0  0  0  0  0  0  0  0  0  0  0  0
    3.1046  -14.4839   22.0823 C   0  0  0  0  0  0  0  0  0  0  0  0
    3.8590  -15.4076   23.4315 C   0  0  0  0  0  0  0  0  0  0  0  0
    2.0563  -15.3540   20.4965 C   0  0  0  0  0  0  0  0  0  0  0  0
    0.4058  -16.7393   20.7111 C   0  0  0  0  0  0  0  0  0  0  0  0
   -1.0385  -17.9779   21.3048 N   0  0  0  0  0  0  0  0  0  0  0  0
   -1.1727  -19.2054   22.7726 C   0  0  0  0  0  0  0  0  0  0  0  0
   -0.2670  -19.2010   23.5527 O   0  0  0  0  0  0  0  0  0  0  0  0
   -2.3411  -20.5875   23.2021 C   0  0  0  0  0  0  0  0  0  0  0  0
   -2.7816  -20.8113   24.5549 N   0  0  0  0  0  0  0  0  0  0  0  0
   -3.5926  -21.8373   24.8212 N   0  0  0  0  0  0  0  0  0  0  0  0
   -3.6653  -22.4598   23.6606 C   0  0  0  0  0  0  0  0  0  0  0  0
   -2.9325  -21.7919   22.6406 C   0  0  0  0  0  0  0  0  0  0  0  0
   -3.0421  -22.5007   21.0754 Cl  0  0  0  0  0  0  0  0  0  0  0  0
    2.3808  -14.2209   18.9091 N   0  0  0  0  0  0  0  0  0  0  0  0
    3.6970  -12.9727   18.5735 C   0  0  0  0  0  0  0  0  0  0  0  0
    4.6824  -12.7605   19.2902 O   0  0  0  0  0  0  0  0  0  0  0  0
    3.5324  -11.6019   17.0875 C   0  0  0  0  0  0  0  0  0  0  0  0
    3.0065   -9.6807   17.5014 C   0  0  0  0  0  0  0  0  0  0  0  0
    2.5307   -8.0486   16.6175 C   0  0  0  0  0  0  0  0  0  0  0  0
    1.3416   -7.6147   16.0141 C   0  0  0  0  0  0  0  0  0  0  0  0
    1.6317   -6.5211   15.1675 C   0  0  0  0  0  0  0  0  0  0  0  0
    2.8686   -6.0951   15.3555 N   0  0  0  0  0  0  0  0  0  0  0  0
    3.3179   -6.8685   16.3586 N   0  0  0  0  0  0  0  0  0  0  0  0
    2.9931  -12.1974   22.8878 H   0  0  0  0  0  0  0  0  0  0  0  0
    2.0437  -13.2199   24.0411 H   0  0  0  0  0  0  0  0  0  0  0  0
    3.5944  -13.1940   24.1592 H   0  0  0  0  0  0  0  0  0  0  0  0
    3.5451  -13.6847   21.4075 H   0  0  0  0  0  0  0  0  0  0  0  0
    3.7278  -16.4825   23.4401 H   0  0  0  0  0  0  0  0  0  0  0  0
    4.9211  -15.4322   23.5975 H   0  0  0  0  0  0  0  0  0  0  0  0
    3.7998  -14.8954   24.3809 H   0  0  0  0  0  0  0  0  0  0  0  0
    1.2939  -14.9087   20.9917 H   0  0  0  0  0  0  0  0  0  0  0  0
   -0.4100  -16.1727   20.2848 H   0  0  0  0  0  0  0  0  0  0  0  0
    0.5011  -17.2834   19.7828 H   0  0  0  0  0  0  0  0  0  0  0  0
   -1.8154  -18.1411   20.6809 H   0  0  0  0  0  0  0  0  0  0  0  0
   -2.5219  -20.2116   25.3361 H   0  0  0  0  0  0  0  0  0  0  0  0
   -4.2623  -23.3602   23.5764 H   0  0  0  0  0  0  0  0  0  0  0  0
    1.7345  -14.2496   18.1211 H   0  0  0  0  0  0  0  0  0  0  0  0
    2.7330  -11.7656   16.4635 H   0  0  0  0  0  0  0  0  0  0  0  0
    4.1124  -11.6854   16.1790 H   0  0  0  0  0  0  0  0  0  0  0  0
    2.1327   -9.6786   18.1429 H   0  0  0  0  0  0  0  0  0  0  0  0
    3.7493   -9.2120   18.1336 H   0  0  0  0  0  0  0  0  0  0  0  0
    0.3831   -8.0651   16.1766 H   0  0  0  0  0  0  0  0  0  0  0  0
    0.9804   -5.9992   14.4787 H   0  0  0  0  0  0  0  0  0  0  0  0
    4.1527   -6.5597   16.8500 H   0  0  0  0  0  0  0  0  0  0  0  0
  1  2  1  0
  2  3  1  0
  2  4  1  0
  4  5  1  0
  5  6  1  0
  6  7  1  0
  7  8  2  0
  7  9  1  0
  9 10  1  0
 10 11  1  0
 11 12  2  0
 12 13  1  0
 13 14  1  0
  4 15  1  0
 15 16  1  0
 16 17  2  0
 16 18  1  0
 18 19  1  0
 19 20  1  0
 20 21  2  0
 21 22  1  0
 22 23  2  0
 23 24  1  0
 13  9  2  0
 24 20  1  0
  1 25  1  0
  1 26  1  0
  1 27  1  0
  2 28  1  0
  3 29  1  0
  3 30  1  0
  3 31  1  0
  4 32  1  0
  5 33  1  0
  5 34  1  0
  6 35  1  0
 10 36  1  0
 12 37  1  0
 15 38  1  0
 18 39  1  0
 18 40  1  0
 19 41  1  0
 19 42  1  0
 21 43  1  0
 22 44  1  0
 24 45  1  0
M  END
>  <Energy>  (839) 
964.77953835516439

>  <compound_id>  (839) 
13518

>  <target_id>  (839) 
1

>  <reference_id>  (839) 
122

>  <inspiration_ids>  (839) 
[96, 122]

>  <energy_score>  (839) 
943.3977559705778

>  <distance_score>  (839) 
10.704332800791349

>  <path>  (839) 
/opt/xchem-fragalysis-2/maxwin/BulkDock/SCRATCH/511016/C13518-P122/C13518-P122.minimised.mol

>  <scratch_subdir>  (839) 
/opt/xchem-fragalysis-2/maxwin/BulkDock/SCRATCH/511016/C13518-P122

>  <fragmenstein_runtime>  (839) 
30.380877256393433

>  <fragmenstein_outcome>  (839) 
too moved

>  <fragmenstein_mode>  (839) 
expansion

>  <fragmenstein_error>  (839) 


$$$$
C13519-P96
     RDKit          3D

 40 41  0  0  0  0  0  0  0  0999 V2000
    1.5664  -13.2796   18.4836 C   0  0  0  0  0  0  0  0  0  0  0  0
    2.2514  -13.5075   17.2813 N   0  0  0  0  0  0  0  0  0  0  0  0
    1.0555  -14.2771   16.9914 C   0  0  0  0  0  0  0  0  0  0  0  0
   -0.1503  -15.3055   18.4320 C   0  0  0  0  0  0  0  0  0  0  0  0
   -0.2334  -15.1252   19.8317 O   0  0  0  0  0  0  0  0  0  0  0  0
   -1.3010  -16.8440   18.6231 C   0  0  0  0  0  0  0  0  0  0  0  0
   -2.8771  -16.8936   18.4245 N   0  0  0  0  0  0  0  0  0  0  0  0
   -3.8563  -17.9985   18.6659 C   0  0  0  0  0  0  0  0  0  0  0  0
   -3.6963  -19.0771   19.1391 O   0  0  0  0  0  0  0  0  0  0  0  0
   -5.2766  -17.7914   18.3807 C   0  0  0  0  0  0  0  0  0  0  0  0
   -6.2086  -18.1227   19.3845 N   0  0  0  0  0  0  0  0  0  0  0  0
   -7.4819  -18.2388   18.9780 N   0  0  0  0  0  0  0  0  0  0  0  0
   -7.3509  -18.2617   17.6550 C   0  0  0  0  0  0  0  0  0  0  0  0
   -6.0244  -17.9820   17.2329 C   0  0  0  0  0  0  0  0  0  0  0  0
   -5.5412  -17.9776   15.6107 Cl  0  0  0  0  0  0  0  0  0  0  0  0
    2.7478  -12.2151   16.7248 C   0  0  0  0  0  0  0  0  0  0  0  0
    2.2304  -11.4448   15.9517 O   0  0  0  0  0  0  0  0  0  0  0  0
    4.1298  -11.8984   17.4567 C   0  0  0  0  0  0  0  0  0  0  0  0
    4.9592  -10.6775   17.6491 C   0  0  0  0  0  0  0  0  0  0  0  0
    6.2189  -10.6170   18.2266 C   0  0  0  0  0  0  0  0  0  0  0  0
    7.0940   -9.7830   17.2336 C   0  0  0  0  0  0  0  0  0  0  0  0
    6.2225   -8.9652   16.7141 N   0  0  0  0  0  0  0  0  0  0  0  0
    4.9997   -9.6776   16.7632 N   0  0  0  0  0  0  0  0  0  0  0  0
    0.8590  -13.6595   19.1442 H   0  0  0  0  0  0  0  0  0  0  0  0
    1.8364  -14.1384   18.9444 H   0  0  0  0  0  0  0  0  0  0  0  0
    2.1218  -12.5020   19.0549 H   0  0  0  0  0  0  0  0  0  0  0  0
    0.4708  -13.6494   16.2682 H   0  0  0  0  0  0  0  0  0  0  0  0
    1.6772  -14.9586   16.3974 H   0  0  0  0  0  0  0  0  0  0  0  0
   -1.1426  -14.8362   18.2092 H   0  0  0  0  0  0  0  0  0  0  0  0
   -1.1477  -15.2880   20.1471 H   0  0  0  0  0  0  0  0  0  0  0  0
   -1.1531  -17.1731   19.6416 H   0  0  0  0  0  0  0  0  0  0  0  0
   -1.0075  -17.5461   17.8525 H   0  0  0  0  0  0  0  0  0  0  0  0
   -3.3699  -16.0820   18.0820 H   0  0  0  0  0  0  0  0  0  0  0  0
   -6.0006  -18.3911   20.3443 H   0  0  0  0  0  0  0  0  0  0  0  0
   -8.2191  -18.4625   17.0406 H   0  0  0  0  0  0  0  0  0  0  0  0
    4.7449  -12.7615   17.3580 H   0  0  0  0  0  0  0  0  0  0  0  0
    3.7695  -11.7645   18.4747 H   0  0  0  0  0  0  0  0  0  0  0  0
    6.7577  -11.3597   18.7458 H   0  0  0  0  0  0  0  0  0  0  0  0
    8.1573   -9.7587   16.9944 H   0  0  0  0  0  0  0  0  0  0  0  0
    4.3221   -9.4891   16.0161 H   0  0  0  0  0  0  0  0  0  0  0  0
  1  2  1  0
  2  3  1  0
  3  4  1  0
  4  5  1  0
  4  6  1  0
  6  7  1  0
  7  8  1  0
  8  9  2  0
  8 10  1  0
 10 11  1  0
 11 12  1  0
 12 13  2  0
 13 14  1  0
 14 15  1  0
  2 16  1  0
 16 17  2  0
 16 18  1  0
 18 19  1  0
 19 20  2  0
 20 21  1  0
 21 22  2  0
 22 23  1  0
 14 10  2  0
 23 19  1  0
  1 24  1  0
  1 25  1  0
  1 26  1  0
  3 27  1  0
  3 28  1  0
  4 29  1  0
  5 30  1  0
  6 31  1  0
  6 32  1  0
  7 33  1  0
 11 34  1  0
 13 35  1  0
 18 36  1  0
 18 37  1  0
 20 38  1  0
 21 39  1  0
 23 40  1  0
M  END
>  <Energy>  (840) 
443.32473552760837

>  <compound_id>  (840) 
13519

>  <target_id>  (840) 
1

>  <reference_id>  (840) 
96

>  <inspiration_ids>  (840) 
[96, 122]

>  <energy_score>  (840) 
389.0670200419263

>  <distance_score>  (840) 
12.102304475123459

>  <path>  (840) 
/opt/xchem-fragalysis-2/maxwin/BulkDock/SCRATCH/511016/C13519-P96/C13519-P96.minimised.mol

>  <scratch_subdir>  (840) 
/opt/xchem-fragalysis-2/maxwin/BulkDock/SCRATCH/511016/C13519-P96

>  <fragmenstein_runtime>  (840) 
20.485628366470337

>  <fragmenstein_outcome>  (840) 
too moved

>  <fragmenstein_mode>  (840) 
expansion

>  <fragmenstein_error>  (840) 


$$$$
C13519-P122
     RDKit          3D

 40 41  0  0  0  0  0  0  0  0999 V2000
   -1.6274   -8.3718   18.9845 C   0  0  0  0  0  0  0  0  0  0  0  0
   -0.9131   -9.3951   18.2036 N   0  0  0  0  0  0  0  0  0  0  0  0
   -1.7179  -10.5726   19.5382 C   0  0  0  0  0  0  0  0  0  0  0  0
   -2.1414  -12.5460   19.6467 C   0  0  0  0  0  0  0  0  0  0  0  0
   -3.5646  -12.0957   19.9206 O   0  0  0  0  0  0  0  0  0  0  0  0
   -1.9867  -14.6339   20.1234 C   0  0  0  0  0  0  0  0  0  0  0  0
   -3.1422  -16.1124   20.3756 N   0  0  0  0  0  0  0  0  0  0  0  0
   -4.2504  -16.5554   21.7380 C   0  0  0  0  0  0  0  0  0  0  0  0
   -4.2516  -15.8896   22.7245 O   0  0  0  0  0  0  0  0  0  0  0  0
   -5.6419  -17.9262   21.8624 C   0  0  0  0  0  0  0  0  0  0  0  0
   -6.7402  -18.0894   21.0588 N   0  0  0  0  0  0  0  0  0  0  0  0
   -7.5708  -19.1079   21.3513 N   0  0  0  0  0  0  0  0  0  0  0  0
   -7.0573  -19.7743   22.3891 C   0  0  0  0  0  0  0  0  0  0  0  0
   -6.0581  -19.0684   23.1914 C   0  0  0  0  0  0  0  0  0  0  0  0
   -4.6455  -20.4288   24.5497 Cl  0  0  0  0  0  0  0  0  0  0  0  0
    0.8591   -8.8854   17.9485 C   0  0  0  0  0  0  0  0  0  0  0  0
    1.7676   -9.1828   18.7129 O   0  0  0  0  0  0  0  0  0  0  0  0
    1.5904   -8.0100   16.4069 C   0  0  0  0  0  0  0  0  0  0  0  0
    2.9184   -8.6763   14.9788 C   0  0  0  0  0  0  0  0  0  0  0  0
    4.1717   -8.3058   13.7720 C   0  0  0  0  0  0  0  0  0  0  0  0
    4.9392   -9.3391   13.1668 C   0  0  0  0  0  0  0  0  0  0  0  0
    4.6745  -10.4855   13.7024 N   0  0  0  0  0  0  0  0  0  0  0  0
    3.5243  -10.3667   14.4643 N   0  0  0  0  0  0  0  0  0  0  0  0
   -1.7433   -8.5074   20.0663 H   0  0  0  0  0  0  0  0  0  0  0  0
   -0.9248   -7.5596   19.0360 H   0  0  0  0  0  0  0  0  0  0  0  0
   -2.5991   -8.1324   18.5498 H   0  0  0  0  0  0  0  0  0  0  0  0
   -1.3368  -10.3274   20.5463 H   0  0  0  0  0  0  0  0  0  0  0  0
   -2.7477  -10.2050   19.4394 H   0  0  0  0  0  0  0  0  0  0  0  0
   -2.1048  -12.6508   18.5388 H   0  0  0  0  0  0  0  0  0  0  0  0
   -3.6043  -11.6173   20.7681 H   0  0  0  0  0  0  0  0  0  0  0  0
   -1.2435  -15.4369   19.9166 H   0  0  0  0  0  0  0  0  0  0  0  0
   -1.8969  -14.7895   18.9990 H   0  0  0  0  0  0  0  0  0  0  0  0
   -3.2108  -16.8314   19.6587 H   0  0  0  0  0  0  0  0  0  0  0  0
   -6.9762  -17.5136   20.2630 H   0  0  0  0  0  0  0  0  0  0  0  0
   -7.3694  -20.8030   22.4968 H   0  0  0  0  0  0  0  0  0  0  0  0
    2.4704   -8.2160   17.0221 H   0  0  0  0  0  0  0  0  0  0  0  0
    0.6546   -8.2165   15.9370 H   0  0  0  0  0  0  0  0  0  0  0  0
    4.3174   -7.4645   13.1656 H   0  0  0  0  0  0  0  0  0  0  0  0
    5.6765   -9.2554   12.3788 H   0  0  0  0  0  0  0  0  0  0  0  0
    3.5574  -11.0422   15.2121 H   0  0  0  0  0  0  0  0  0  0  0  0
  1  2  1  0
  2  3  1  0
  3  4  1  0
  4  5  1  0
  4  6  1  0
  6  7  1  0
  7  8  1  0
  8  9  2  0
  8 10  1  0
 10 11  1  0
 11 12  1  0
 12 13  2  0
 13 14  1  0
 14 15  1  0
  2 16  1  0
 16 17  2  0
 16 18  1  0
 18 19  1  0
 19 20  2  0
 20 21  1  0
 21 22  2  0
 22 23  1  0
 14 10  2  0
 23 19  1  0
  1 24  1  0
  1 25  1  0
  1 26  1  0
  3 27  1  0
  3 28  1  0
  4 29  1  0
  5 30  1  0
  6 31  1  0
  6 32  1  0
  7 33  1  0
 11 34  1  0
 13 35  1  0
 18 36  1  0
 18 37  1  0
 20 38  1  0
 21 39  1  0
 23 40  1  0
M  END
>  <Energy>  (841) 
1185.7231766657735

>  <compound_id>  (841) 
13519

>  <target_id>  (841) 
1

>  <reference_id>  (841) 
122

>  <inspiration_ids>  (841) 
[96, 122]

>  <energy_score>  (841) 
1131.4654611801009

>  <distance_score>  (841) 
10.581406172188816

>  <path>  (841) 
/opt/xchem-fragalysis-2/maxwin/BulkDock/SCRATCH/511016/C13519-P122/C13519-P122.minimised.mol

>  <scratch_subdir>  (841) 
/opt/xchem-fragalysis-2/maxwin/BulkDock/SCRATCH/511016/C13519-P122

>  <fragmenstein_runtime>  (841) 
31.205519437789917

>  <fragmenstein_outcome>  (841) 
too moved

>  <fragmenstein_mode>  (841) 
expansion

>  <fragmenstein_error>  (841) 


$$$$
C13520-P96
     RDKit          3D

 37 38  0  0  0  0  0  0  0  0999 V2000
   -0.4234  -16.2941   24.9445 O   0  0  0  0  0  0  0  0  0  0  0  0
   -1.4291  -15.7427   24.4834 C   0  0  0  0  0  0  0  0  0  0  0  0
   -2.5237  -16.2989   25.0240 C   0  0  0  0  0  0  0  0  0  0  0  0
   -2.4183  -17.7980   26.0124 C   0  0  0  0  0  0  0  0  0  0  0  0
   -2.0477  -18.1165   27.3125 C   0  0  0  0  0  0  0  0  0  0  0  0
   -2.5327  -19.4202   27.5662 C   0  0  0  0  0  0  0  0  0  0  0  0
   -3.1322  -19.9540   26.5071 N   0  0  0  0  0  0  0  0  0  0  0  0
   -3.0526  -18.9725   25.5869 N   0  0  0  0  0  0  0  0  0  0  0  0
   -1.6029  -14.0754   23.2254 N   0  0  0  0  0  0  0  0  0  0  0  0
   -0.1447  -12.7501   22.5136 C   0  0  0  0  0  0  0  0  0  0  0  0
    0.9805  -10.9884   21.9926 C   0  0  0  0  0  0  0  0  0  0  0  0
   -0.1992  -10.3638   20.8600 C   0  0  0  0  0  0  0  0  0  0  0  0
   -1.0148  -11.5803   20.9161 O   0  0  0  0  0  0  0  0  0  0  0  0
    2.1627  -10.4180   20.6916 N   0  0  0  0  0  0  0  0  0  0  0  0
    2.7516  -11.1125   19.5785 C   0  0  0  0  0  0  0  0  0  0  0  0
    2.5546  -12.1901   19.1847 O   0  0  0  0  0  0  0  0  0  0  0  0
    4.1193  -10.3547   18.6548 C   0  0  0  0  0  0  0  0  0  0  0  0
    4.3437  -11.5932   17.9636 N   0  0  0  0  0  0  0  0  0  0  0  0
    3.7049  -11.4724   16.8289 N   0  0  0  0  0  0  0  0  0  0  0  0
    4.4189  -10.4620   16.3840 C   0  0  0  0  0  0  0  0  0  0  0  0
    5.0304   -9.9802   17.4654 C   0  0  0  0  0  0  0  0  0  0  0  0
    6.0147   -8.6010   16.5583 Cl  0  0  0  0  0  0  0  0  0  0  0  0
   -3.2108  -15.4744   24.9230 H   0  0  0  0  0  0  0  0  0  0  0  0
   -2.3611  -15.8233   26.0313 H   0  0  0  0  0  0  0  0  0  0  0  0
   -1.5146  -17.5188   28.0235 H   0  0  0  0  0  0  0  0  0  0  0  0
   -2.4511  -19.9975   28.4771 H   0  0  0  0  0  0  0  0  0  0  0  0
   -3.5323  -19.1011   24.7071 H   0  0  0  0  0  0  0  0  0  0  0  0
   -2.5635  -13.9360   22.9722 H   0  0  0  0  0  0  0  0  0  0  0  0
    0.7012  -13.2251   21.9566 H   0  0  0  0  0  0  0  0  0  0  0  0
    0.0611  -12.2934   23.4637 H   0  0  0  0  0  0  0  0  0  0  0  0
    1.8384  -11.6714   22.0357 H   0  0  0  0  0  0  0  0  0  0  0  0
   -0.0803   -9.9522   19.8904 H   0  0  0  0  0  0  0  0  0  0  0  0
   -0.9384   -9.5560   20.8729 H   0  0  0  0  0  0  0  0  0  0  0  0
   -0.8746  -12.5150   20.5939 H   0  0  0  0  0  0  0  0  0  0  0  0
    2.4850   -9.4954   20.6941 H   0  0  0  0  0  0  0  0  0  0  0  0
    4.1231  -12.4793   18.3805 H   0  0  0  0  0  0  0  0  0  0  0  0
    4.2897   -9.9327   15.4421 H   0  0  0  0  0  0  0  0  0  0  0  0
  1  2  2  0
  2  3  1  0
  3  4  1  0
  4  5  2  0
  5  6  1  0
  6  7  2  0
  7  8  1  0
  2  9  1  0
  9 10  1  0
 10 11  1  0
 11 12  1  0
 12 13  1  0
 11 14  1  0
 14 15  1  0
 15 16  2  0
 15 17  1  0
 17 18  1  0
 18 19  1  0
 19 20  2  0
 20 21  1  0
 21 22  1  0
  8  4  1  0
 21 17  2  0
  3 23  1  0
  3 24  1  0
  5 25  1  0
  6 26  1  0
  8 27  1  0
  9 28  1  0
 10 29  1  0
 10 30  1  0
 11 31  1  0
 12 32  1  0
 12 33  1  0
 13 34  1  0
 14 35  1  0
 18 36  1  0
 20 37  1  0
M  END
>  <Energy>  (842) 
960.01333065207712

>  <compound_id>  (842) 
13520

>  <target_id>  (842) 
1

>  <reference_id>  (842) 
96

>  <inspiration_ids>  (842) 
[96, 122]

>  <energy_score>  (842) 
928.720679422496

>  <distance_score>  (842) 
11.149148029593363

>  <path>  (842) 
/opt/xchem-fragalysis-2/maxwin/BulkDock/SCRATCH/511016/C13520-P96/C13520-P96.minimised.mol

>  <scratch_subdir>  (842) 
/opt/xchem-fragalysis-2/maxwin/BulkDock/SCRATCH/511016/C13520-P96

>  <fragmenstein_runtime>  (842) 
19.412534952163696

>  <fragmenstein_outcome>  (842) 
too moved

>  <fragmenstein_mode>  (842) 
expansion

>  <fragmenstein_error>  (842) 


$$$$
C13520-P122
     RDKit          3D

 37 38  0  0  0  0  0  0  0  0999 V2000
   -2.2348  -17.9307   20.6676 O   0  0  0  0  0  0  0  0  0  0  0  0
   -1.2782  -18.2607   21.3190 C   0  0  0  0  0  0  0  0  0  0  0  0
   -1.5709  -19.7334   22.8283 C   0  0  0  0  0  0  0  0  0  0  0  0
   -2.6687  -21.0921   23.0731 C   0  0  0  0  0  0  0  0  0  0  0  0
   -3.0617  -21.6207   24.3043 C   0  0  0  0  0  0  0  0  0  0  0  0
   -3.9365  -22.6779   24.0052 C   0  0  0  0  0  0  0  0  0  0  0  0
   -4.0904  -22.8392   22.6927 N   0  0  0  0  0  0  0  0  0  0  0  0
   -3.3189  -21.8815   22.1416 N   0  0  0  0  0  0  0  0  0  0  0  0
    0.0839  -17.6584   21.2546 N   0  0  0  0  0  0  0  0  0  0  0  0
    0.7060  -16.2724   20.3688 C   0  0  0  0  0  0  0  0  0  0  0  0
    2.3317  -14.9624   20.1517 C   0  0  0  0  0  0  0  0  0  0  0  0
    2.6516  -14.6794   18.5422 C   0  0  0  0  0  0  0  0  0  0  0  0
    3.8617  -15.2300   18.1017 O   0  0  0  0  0  0  0  0  0  0  0  0
    3.4752  -13.4344   20.7086 N   0  0  0  0  0  0  0  0  0  0  0  0
    5.0808  -12.9173   20.1548 C   0  0  0  0  0  0  0  0  0  0  0  0
    5.6636  -13.5737   19.3970 O   0  0  0  0  0  0  0  0  0  0  0  0
    5.9845  -11.4115   20.4419 C   0  0  0  0  0  0  0  0  0  0  0  0
    6.7331  -11.4758   19.2943 N   0  0  0  0  0  0  0  0  0  0  0  0
    8.3873  -11.4938   19.5660 N   0  0  0  0  0  0  0  0  0  0  0  0
    8.3758  -10.3845   18.9853 C   0  0  0  0  0  0  0  0  0  0  0  0
    7.1841  -10.2235   19.8039 C   0  0  0  0  0  0  0  0  0  0  0  0
    6.8249   -7.7829   19.8188 Cl  0  0  0  0  0  0  0  0  0  0  0  0
   -1.4085  -19.5352   23.8633 H   0  0  0  0  0  0  0  0  0  0  0  0
   -0.7673  -20.4573   23.2790 H   0  0  0  0  0  0  0  0  0  0  0  0
   -2.7626  -21.2764   25.2835 H   0  0  0  0  0  0  0  0  0  0  0  0
   -4.4671  -23.3367   24.6812 H   0  0  0  0  0  0  0  0  0  0  0  0
   -3.3207  -21.7942   21.1291 H   0  0  0  0  0  0  0  0  0  0  0  0
    0.6821  -18.1903   21.8328 H   0  0  0  0  0  0  0  0  0  0  0  0
   -0.2979  -15.9953   20.0408 H   0  0  0  0  0  0  0  0  0  0  0  0
    0.7430  -16.8720   19.4807 H   0  0  0  0  0  0  0  0  0  0  0  0
    1.7584  -14.6789   20.8922 H   0  0  0  0  0  0  0  0  0  0  0  0
    3.0142  -13.7002   18.3302 H   0  0  0  0  0  0  0  0  0  0  0  0
    1.8473  -14.7108   17.8398 H   0  0  0  0  0  0  0  0  0  0  0  0
    4.5147  -14.9367   18.7782 H   0  0  0  0  0  0  0  0  0  0  0  0
    3.1595  -12.7922   21.4221 H   0  0  0  0  0  0  0  0  0  0  0  0
    6.3149  -11.3982   18.3458 H   0  0  0  0  0  0  0  0  0  0  0  0
    9.0757   -9.9929   18.3458 H   0  0  0  0  0  0  0  0  0  0  0  0
  1  2  2  0
  2  3  1  0
  3  4  1  0
  4  5  2  0
  5  6  1  0
  6  7  2  0
  7  8  1  0
  2  9  1  0
  9 10  1  0
 10 11  1  0
 11 12  1  0
 12 13  1  0
 11 14  1  0
 14 15  1  0
 15 16  2  0
 15 17  1  0
 17 18  1  0
 18 19  1  0
 19 20  2  0
 20 21  1  0
 21 22  1  0
  8  4  1  0
 21 17  2  0
  3 23  1  0
  3 24  1  0
  5 25  1  0
  6 26  1  0
  8 27  1  0
  9 28  1  0
 10 29  1  0
 10 30  1  0
 11 31  1  0
 12 32  1  0
 12 33  1  0
 13 34  1  0
 14 35  1  0
 18 36  1  0
 20 37  1  0
M  END
>  <Energy>  (843) 
988.65777860650178

>  <compound_id>  (843) 
13520

>  <target_id>  (843) 
1

>  <reference_id>  (843) 
122

>  <inspiration_ids>  (843) 
[96, 122]

>  <energy_score>  (843) 
957.3651273769075

>  <distance_score>  (843) 
10.52308961901435

>  <path>  (843) 
/opt/xchem-fragalysis-2/maxwin/BulkDock/SCRATCH/511016/C13520-P122/C13520-P122.minimised.mol

>  <scratch_subdir>  (843) 
/opt/xchem-fragalysis-2/maxwin/BulkDock/SCRATCH/511016/C13520-P122

>  <fragmenstein_runtime>  (843) 
28.17653465270996

>  <fragmenstein_outcome>  (843) 
too moved

>  <fragmenstein_mode>  (843) 
expansion

>  <fragmenstein_error>  (843) 


$$$$
C13521-P96
     RDKit          3D

 40 41  0  0  0  0  0  0  0  0999 V2000
   -3.5528  -13.8845   22.0085 O   0  0  0  0  0  0  0  0  0  0  0  0
   -2.5036  -13.8838   22.6428 C   0  0  0  0  0  0  0  0  0  0  0  0
   -2.7123  -15.1221   24.1501 C   0  0  0  0  0  0  0  0  0  0  0  0
   -2.7165  -15.1995   25.9863 C   0  0  0  0  0  0  0  0  0  0  0  0
   -4.0245  -15.6257   27.1367 C   0  0  0  0  0  0  0  0  0  0  0  0
   -4.7925  -16.8937   27.4563 C   0  0  0  0  0  0  0  0  0  0  0  0
   -5.7318  -16.5668   28.4153 C   0  0  0  0  0  0  0  0  0  0  0  0
   -5.4256  -15.4577   29.0666 N   0  0  0  0  0  0  0  0  0  0  0  0
   -4.3299  -14.9891   28.4175 N   0  0  0  0  0  0  0  0  0  0  0  0
   -1.1148  -12.5576   22.0971 N   0  0  0  0  0  0  0  0  0  0  0  0
   -1.1151  -10.9158   20.6818 C   0  0  0  0  0  0  0  0  0  0  0  0
   -0.2335   -9.4670   19.1715 C   0  0  0  0  0  0  0  0  0  0  0  0
    1.0749  -10.1310   20.4668 O   0  0  0  0  0  0  0  0  0  0  0  0
    0.7764   -8.5245   17.2890 C   0  0  0  0  0  0  0  0  0  0  0  0
    2.7633   -8.1855   16.3243 N   0  0  0  0  0  0  0  0  0  0  0  0
    4.5105   -9.2706   16.4517 C   0  0  0  0  0  0  0  0  0  0  0  0
    4.4485  -10.3031   17.0803 O   0  0  0  0  0  0  0  0  0  0  0  0
    6.3962   -8.9722   15.9356 C   0  0  0  0  0  0  0  0  0  0  0  0
    7.0553   -9.2001   14.6385 N   0  0  0  0  0  0  0  0  0  0  0  0
    8.2961   -9.7417   14.5858 N   0  0  0  0  0  0  0  0  0  0  0  0
    8.7473   -9.5455   15.8073 C   0  0  0  0  0  0  0  0  0  0  0  0
    7.7579   -8.8349   16.5499 C   0  0  0  0  0  0  0  0  0  0  0  0
    8.7733   -7.3005   17.2248 Cl  0  0  0  0  0  0  0  0  0  0  0  0
   -3.7187  -14.8122   24.0498 H   0  0  0  0  0  0  0  0  0  0  0  0
   -2.4235  -16.1408   24.1677 H   0  0  0  0  0  0  0  0  0  0  0  0
   -1.9142  -15.9219   26.1714 H   0  0  0  0  0  0  0  0  0  0  0  0
   -2.4202  -14.1808   26.2665 H   0  0  0  0  0  0  0  0  0  0  0  0
   -4.7541  -17.8546   26.9603 H   0  0  0  0  0  0  0  0  0  0  0  0
   -6.6415  -17.1026   28.5582 H   0  0  0  0  0  0  0  0  0  0  0  0
   -3.8590  -14.1934   28.8308 H   0  0  0  0  0  0  0  0  0  0  0  0
   -0.3515  -12.6061   22.7480 H   0  0  0  0  0  0  0  0  0  0  0  0
   -0.5069  -10.1771   21.1385 H   0  0  0  0  0  0  0  0  0  0  0  0
   -2.1260  -10.6846   20.0844 H   0  0  0  0  0  0  0  0  0  0  0  0
   -0.7426   -8.5627   19.5548 H   0  0  0  0  0  0  0  0  0  0  0  0
    1.5039  -10.9765   20.1529 H   0  0  0  0  0  0  0  0  0  0  0  0
    0.0278   -7.7434   16.9426 H   0  0  0  0  0  0  0  0  0  0  0  0
    0.5556   -8.9445   16.2908 H   0  0  0  0  0  0  0  0  0  0  0  0
    2.9176   -7.4019   15.7122 H   0  0  0  0  0  0  0  0  0  0  0  0
    6.6519   -9.0036   13.7352 H   0  0  0  0  0  0  0  0  0  0  0  0
    9.7964   -9.7071   16.0177 H   0  0  0  0  0  0  0  0  0  0  0  0
  1  2  2  0
  2  3  1  0
  3  4  1  0
  4  5  1  0
  5  6  2  0
  6  7  1  0
  7  8  2  0
  8  9  1  0
  2 10  1  0
 10 11  1  0
 11 12  1  0
 12 13  1  0
 12 14  1  0
 14 15  1  0
 15 16  1  0
 16 17  2  0
 16 18  1  0
 18 19  1  0
 19 20  1  0
 20 21  2  0
 21 22  1  0
 22 23  1  0
  9  5  1  0
 22 18  2  0
  3 24  1  0
  3 25  1  0
  4 26  1  0
  4 27  1  0
  6 28  1  0
  7 29  1  0
  9 30  1  0
 10 31  1  0
 11 32  1  0
 11 33  1  0
 12 34  1  0
 13 35  1  0
 14 36  1  0
 14 37  1  0
 15 38  1  0
 19 39  1  0
 21 40  1  0
M  END
>  <Energy>  (844) 
1662.4608954532418

>  <compound_id>  (844) 
13521

>  <target_id>  (844) 
1

>  <reference_id>  (844) 
96

>  <inspiration_ids>  (844) 
[96, 122]

>  <energy_score>  (844) 
1645.2915270329977

>  <distance_score>  (844) 
9.57473228270541

>  <path>  (844) 
/opt/xchem-fragalysis-2/maxwin/BulkDock/SCRATCH/511016/C13521-P96/C13521-P96.minimised.mol

>  <scratch_subdir>  (844) 
/opt/xchem-fragalysis-2/maxwin/BulkDock/SCRATCH/511016/C13521-P96

>  <fragmenstein_runtime>  (844) 
14.401074171066284

>  <fragmenstein_outcome>  (844) 
too moved

>  <fragmenstein_mode>  (844) 
expansion

>  <fragmenstein_error>  (844) 


$$$$
C13521-P122
     RDKit          3D

 40 41  0  0  0  0  0  0  0  0999 V2000
    0.2145  -16.2053   20.0099 O   0  0  0  0  0  0  0  0  0  0  0  0
   -0.3118  -15.3949   19.1507 C   0  0  0  0  0  0  0  0  0  0  0  0
   -1.8564  -15.7006   19.0039 C   0  0  0  0  0  0  0  0  0  0  0  0
   -2.2652  -17.2873   19.2009 C   0  0  0  0  0  0  0  0  0  0  0  0
   -3.5758  -17.9772   18.8670 C   0  0  0  0  0  0  0  0  0  0  0  0
   -4.6474  -17.7548   18.0337 C   0  0  0  0  0  0  0  0  0  0  0  0
   -5.5739  -18.7874   18.3027 C   0  0  0  0  0  0  0  0  0  0  0  0
   -5.0627  -19.7071   19.1151 N   0  0  0  0  0  0  0  0  0  0  0  0
   -3.8002  -19.2827   19.2780 N   0  0  0  0  0  0  0  0  0  0  0  0
    0.7043  -14.0705   18.0571 N   0  0  0  0  0  0  0  0  0  0  0  0
    2.5926  -13.5789   18.0841 C   0  0  0  0  0  0  0  0  0  0  0  0
    3.4772  -11.6315   17.6443 C   0  0  0  0  0  0  0  0  0  0  0  0
    4.6839  -12.3629   18.7920 O   0  0  0  0  0  0  0  0  0  0  0  0
    3.9509   -9.4378   17.9084 C   0  0  0  0  0  0  0  0  0  0  0  0
    4.9804   -7.5179   17.7156 N   0  0  0  0  0  0  0  0  0  0  0  0
    6.1369   -6.8148   16.2976 C   0  0  0  0  0  0  0  0  0  0  0  0
    6.4894   -7.5167   15.3619 O   0  0  0  0  0  0  0  0  0  0  0  0
    6.6087   -5.4261   16.0343 C   0  0  0  0  0  0  0  0  0  0  0  0
    8.0181   -4.3859   15.8028 N   0  0  0  0  0  0  0  0  0  0  0  0
    7.9505   -3.0309   15.2090 N   0  0  0  0  0  0  0  0  0  0  0  0
    6.7163   -2.7509   14.8972 C   0  0  0  0  0  0  0  0  0  0  0  0
    5.8569   -3.8136   15.3825 C   0  0  0  0  0  0  0  0  0  0  0  0
    3.9957   -3.2696   15.4561 Cl  0  0  0  0  0  0  0  0  0  0  0  0
   -2.2322  -15.2568   19.9144 H   0  0  0  0  0  0  0  0  0  0  0  0
   -2.0180  -15.3162   18.0078 H   0  0  0  0  0  0  0  0  0  0  0  0
   -2.0268  -17.5171   20.2384 H   0  0  0  0  0  0  0  0  0  0  0  0
   -1.5752  -17.8836   18.6080 H   0  0  0  0  0  0  0  0  0  0  0  0
   -4.7611  -16.9257   17.3515 H   0  0  0  0  0  0  0  0  0  0  0  0
   -6.5752  -18.9197   17.9143 H   0  0  0  0  0  0  0  0  0  0  0  0
   -3.1383  -19.9123   19.7196 H   0  0  0  0  0  0  0  0  0  0  0  0
    0.0507  -13.4967   17.5194 H   0  0  0  0  0  0  0  0  0  0  0  0
    3.0685  -14.0962   18.9399 H   0  0  0  0  0  0  0  0  0  0  0  0
    2.9763  -14.5593   17.6798 H   0  0  0  0  0  0  0  0  0  0  0  0
    3.8136  -11.7428   16.6139 H   0  0  0  0  0  0  0  0  0  0  0  0
    4.2255  -12.4989   19.6329 H   0  0  0  0  0  0  0  0  0  0  0  0
    3.0802   -9.0759   18.5083 H   0  0  0  0  0  0  0  0  0  0  0  0
    3.1465   -9.3086   17.1531 H   0  0  0  0  0  0  0  0  0  0  0  0
    4.7378   -6.7714   18.3426 H   0  0  0  0  0  0  0  0  0  0  0  0
    8.8392   -4.8078   15.4207 H   0  0  0  0  0  0  0  0  0  0  0  0
    6.4515   -1.8023   14.4495 H   0  0  0  0  0  0  0  0  0  0  0  0
  1  2  2  0
  2  3  1  0
  3  4  1  0
  4  5  1  0
  5  6  2  0
  6  7  1  0
  7  8  2  0
  8  9  1  0
  2 10  1  0
 10 11  1  0
 11 12  1  0
 12 13  1  0
 12 14  1  0
 14 15  1  0
 15 16  1  0
 16 17  2  0
 16 18  1  0
 18 19  1  0
 19 20  1  0
 20 21  2  0
 21 22  1  0
 22 23  1  0
  9  5  1  0
 22 18  2  0
  3 24  1  0
  3 25  1  0
  4 26  1  0
  4 27  1  0
  6 28  1  0
  7 29  1  0
  9 30  1  0
 10 31  1  0
 11 32  1  0
 11 33  1  0
 12 34  1  0
 13 35  1  0
 14 36  1  0
 14 37  1  0
 15 38  1  0
 19 39  1  0
 21 40  1  0
M  END
>  <Energy>  (845) 
1126.3503071849912

>  <compound_id>  (845) 
13521

>  <target_id>  (845) 
1

>  <reference_id>  (845) 
122

>  <inspiration_ids>  (845) 
[96, 122]

>  <energy_score>  (845) 
1109.1809387647531

>  <distance_score>  (845) 
10.707237265544922

>  <path>  (845) 
/opt/xchem-fragalysis-2/maxwin/BulkDock/SCRATCH/511016/C13521-P122/C13521-P122.minimised.mol

>  <scratch_subdir>  (845) 
/opt/xchem-fragalysis-2/maxwin/BulkDock/SCRATCH/511016/C13521-P122

>  <fragmenstein_runtime>  (845) 
46.11169672012329

>  <fragmenstein_outcome>  (845) 
too moved

>  <fragmenstein_mode>  (845) 
expansion

>  <fragmenstein_error>  (845) 


$$$$
C13522-P96
     RDKit          3D

 29 30  0  0  0  0  0  0  0  0999 V2000
   -1.7206  -12.0268   23.9681 O   0  0  0  0  0  0  0  0  0  0  0  0
   -1.5566  -12.7457   23.0183 C   0  0  0  0  0  0  0  0  0  0  0  0
   -2.8578  -14.0476   23.0217 C   0  0  0  0  0  0  0  0  0  0  0  0
   -4.0586  -13.9174   24.1361 C   0  0  0  0  0  0  0  0  0  0  0  0
   -4.0567  -13.8204   25.5171 C   0  0  0  0  0  0  0  0  0  0  0  0
   -5.3383  -14.2464   25.9297 C   0  0  0  0  0  0  0  0  0  0  0  0
   -6.1144  -14.5868   24.8999 N   0  0  0  0  0  0  0  0  0  0  0  0
   -5.3376  -14.3451   23.8271 N   0  0  0  0  0  0  0  0  0  0  0  0
   -0.1304  -12.6241   21.8586 N   0  0  0  0  0  0  0  0  0  0  0  0
    1.4995  -11.4792   21.8886 C   0  0  0  0  0  0  0  0  0  0  0  0
    2.3243  -11.0743   20.1076 C   0  0  0  0  0  0  0  0  0  0  0  0
    3.6040  -10.9480   18.8656 N   0  0  0  0  0  0  0  0  0  0  0  0
    3.8067  -11.2884   17.4609 C   0  0  0  0  0  0  0  0  0  0  0  0
    4.5484  -10.0801   16.8236 C   0  0  0  0  0  0  0  0  0  0  0  0
    3.5494   -8.2530   15.9645 Cl  0  0  0  0  0  0  0  0  0  0  0  0
    5.2547  -10.1340   17.9464 C   0  0  0  0  0  0  0  0  0  0  0  0
    4.4312   -9.8756   18.9282 N   0  0  0  0  0  0  0  0  0  0  0  0
   -3.5293  -14.1065   22.1574 H   0  0  0  0  0  0  0  0  0  0  0  0
   -2.6316  -14.9340   23.5752 H   0  0  0  0  0  0  0  0  0  0  0  0
   -3.2166  -13.5632   26.1470 H   0  0  0  0  0  0  0  0  0  0  0  0
   -5.7239  -14.3398   26.9369 H   0  0  0  0  0  0  0  0  0  0  0  0
   -5.7110  -14.5670   22.9102 H   0  0  0  0  0  0  0  0  0  0  0  0
   -0.2662  -13.2923   21.0655 H   0  0  0  0  0  0  0  0  0  0  0  0
    1.1780  -10.5224   22.2369 H   0  0  0  0  0  0  0  0  0  0  0  0
    2.3741  -11.9681   22.2991 H   0  0  0  0  0  0  0  0  0  0  0  0
    2.4382  -12.1115   19.7777 H   0  0  0  0  0  0  0  0  0  0  0  0
    2.7887  -10.2096   20.5038 H   0  0  0  0  0  0  0  0  0  0  0  0
    3.0878  -11.9587   17.0281 H   0  0  0  0  0  0  0  0  0  0  0  0
    6.0334  -10.7988   18.2808 H   0  0  0  0  0  0  0  0  0  0  0  0
  1  2  2  0
  2  3  1  0
  3  4  1  0
  4  5  2  0
  5  6  1  0
  6  7  2  0
  7  8  1  0
  2  9  1  0
  9 10  1  0
 10 11  1  0
 11 12  1  0
 12 13  1  0
 13 14  2  0
 14 15  1  0
 14 16  1  0
 16 17  2  0
  8  4  1  0
 17 12  1  0
  3 18  1  0
  3 19  1  0
  5 20  1  0
  6 21  1  0
  8 22  1  0
  9 23  1  0
 10 24  1  0
 10 25  1  0
 11 26  1  0
 11 27  1  0
 13 28  1  0
 16 29  1  0
M  END
>  <Energy>  (846) 
539.0853187068326

>  <compound_id>  (846) 
13522

>  <target_id>  (846) 
1

>  <reference_id>  (846) 
96

>  <inspiration_ids>  (846) 
[96, 122]

>  <energy_score>  (846) 
495.2887239090703

>  <distance_score>  (846) 
12.12511564514343

>  <path>  (846) 
/opt/xchem-fragalysis-2/maxwin/BulkDock/SCRATCH/511016/C13522-P96/C13522-P96.minimised.mol

>  <scratch_subdir>  (846) 
/opt/xchem-fragalysis-2/maxwin/BulkDock/SCRATCH/511016/C13522-P96

>  <fragmenstein_runtime>  (846) 
9.34005069732666

>  <fragmenstein_outcome>  (846) 
too moved

>  <fragmenstein_mode>  (846) 
expansion

>  <fragmenstein_error>  (846) 


$$$$
C13522-P122
     RDKit          3D

 29 30  0  0  0  0  0  0  0  0999 V2000
    3.7127  -20.4918   17.4646 O   0  0  0  0  0  0  0  0  0  0  0  0
    3.5569  -19.3088   18.0053 C   0  0  0  0  0  0  0  0  0  0  0  0
    1.7872  -18.8655   17.9784 C   0  0  0  0  0  0  0  0  0  0  0  0
    0.8477  -19.7588   18.8650 C   0  0  0  0  0  0  0  0  0  0  0  0
   -0.5163  -19.6633   19.1226 C   0  0  0  0  0  0  0  0  0  0  0  0
   -0.8077  -20.6543   20.0802 C   0  0  0  0  0  0  0  0  0  0  0  0
    0.2751  -21.3553   20.4109 N   0  0  0  0  0  0  0  0  0  0  0  0
    1.2671  -20.7890   19.6774 N   0  0  0  0  0  0  0  0  0  0  0  0
    5.2090  -17.9775   19.0075 N   0  0  0  0  0  0  0  0  0  0  0  0
    6.8012  -18.2745   19.2520 C   0  0  0  0  0  0  0  0  0  0  0  0
    7.6792  -19.2475   20.0604 C   0  0  0  0  0  0  0  0  0  0  0  0
    9.1109  -18.7891   19.8462 N   0  0  0  0  0  0  0  0  0  0  0  0
    9.8170  -18.7942   18.6583 C   0  0  0  0  0  0  0  0  0  0  0  0
   10.8799  -17.9330   18.8208 C   0  0  0  0  0  0  0  0  0  0  0  0
   12.0323  -17.4655   17.6780 Cl  0  0  0  0  0  0  0  0  0  0  0  0
   10.8120  -17.5331   20.1609 C   0  0  0  0  0  0  0  0  0  0  0  0
    9.7849  -18.1048   20.8042 N   0  0  0  0  0  0  0  0  0  0  0  0
    1.5276  -19.1526   16.9446 H   0  0  0  0  0  0  0  0  0  0  0  0
    1.5279  -17.8297   18.0101 H   0  0  0  0  0  0  0  0  0  0  0  0
   -1.2058  -18.9493   18.6978 H   0  0  0  0  0  0  0  0  0  0  0  0
   -1.7558  -20.8920   20.5427 H   0  0  0  0  0  0  0  0  0  0  0  0
    2.2172  -21.1320   19.7945 H   0  0  0  0  0  0  0  0  0  0  0  0
    4.8467  -17.0212   19.2942 H   0  0  0  0  0  0  0  0  0  0  0  0
    6.9695  -17.3055   19.6505 H   0  0  0  0  0  0  0  0  0  0  0  0
    7.1519  -18.4592   18.2410 H   0  0  0  0  0  0  0  0  0  0  0  0
    7.6481  -20.2757   19.6891 H   0  0  0  0  0  0  0  0  0  0  0  0
    7.4813  -19.2461   21.1350 H   0  0  0  0  0  0  0  0  0  0  0  0
    9.4637  -19.3450   17.7989 H   0  0  0  0  0  0  0  0  0  0  0  0
   11.4694  -16.8698   20.7072 H   0  0  0  0  0  0  0  0  0  0  0  0
  1  2  2  0
  2  3  1  0
  3  4  1  0
  4  5  2  0
  5  6  1  0
  6  7  2  0
  7  8  1  0
  2  9  1  0
  9 10  1  0
 10 11  1  0
 11 12  1  0
 12 13  1  0
 13 14  2  0
 14 15  1  0
 14 16  1  0
 16 17  2  0
  8  4  1  0
 17 12  1  0
  3 18  1  0
  3 19  1  0
  5 20  1  0
  6 21  1  0
  8 22  1  0
  9 23  1  0
 10 24  1  0
 10 25  1  0
 11 26  1  0
 11 27  1  0
 13 28  1  0
 16 29  1  0
M  END
>  <Energy>  (847) 
635.33932794711052

>  <compound_id>  (847) 
13522

>  <target_id>  (847) 
1

>  <reference_id>  (847) 
122

>  <inspiration_ids>  (847) 
[96, 122]

>  <energy_score>  (847) 
591.5427331493562

>  <distance_score>  (847) 
15.767878848645013

>  <path>  (847) 
/opt/xchem-fragalysis-2/maxwin/BulkDock/SCRATCH/511016/C13522-P122/C13522-P122.minimised.mol

>  <scratch_subdir>  (847) 
/opt/xchem-fragalysis-2/maxwin/BulkDock/SCRATCH/511016/C13522-P122

>  <fragmenstein_runtime>  (847) 
14.96197772026062

>  <fragmenstein_outcome>  (847) 
too moved

>  <fragmenstein_mode>  (847) 
expansion

>  <fragmenstein_error>  (847) 


$$$$
C13523-P96
     RDKit          3D

 27 28  0  0  0  0  0  0  0  0999 V2000
    4.4594   -8.4574   30.7885 Cl  0  0  0  0  0  0  0  0  0  0  0  0
    3.6937   -9.9583   30.8900 C   0  0  0  0  0  0  0  0  0  0  0  0
    4.2957  -11.2228   30.7967 C   0  0  0  0  0  0  0  0  0  0  0  0
    3.4076  -12.2290   30.9139 N   0  0  0  0  0  0  0  0  0  0  0  0
    2.2100  -11.6081   31.0613 N   0  0  0  0  0  0  0  0  0  0  0  0
    0.9592  -12.3636   31.2923 C   0  0  0  0  0  0  0  0  0  0  0  0
    0.6556  -13.6747   30.4670 C   0  0  0  0  0  0  0  0  0  0  0  0
   -0.7211  -14.2551   30.6969 N   0  0  0  0  0  0  0  0  0  0  0  0
   -1.0207  -15.4551   29.8599 C   0  0  0  0  0  0  0  0  0  0  0  0
   -2.3572  -16.0816   30.1598 C   0  0  0  0  0  0  0  0  0  0  0  0
   -2.8416  -16.7815   31.2501 C   0  0  0  0  0  0  0  0  0  0  0  0
   -4.1535  -17.1562   30.9047 C   0  0  0  0  0  0  0  0  0  0  0  0
   -4.4780  -16.7731   29.6699 N   0  0  0  0  0  0  0  0  0  0  0  0
   -3.3839  -16.1154   29.2444 N   0  0  0  0  0  0  0  0  0  0  0  0
    2.3585  -10.2300   31.0954 C   0  0  0  0  0  0  0  0  0  0  0  0
    5.3386  -11.4664   30.6494 H   0  0  0  0  0  0  0  0  0  0  0  0
    0.1468  -11.6481   31.1151 H   0  0  0  0  0  0  0  0  0  0  0  0
    0.9649  -12.6043   32.3622 H   0  0  0  0  0  0  0  0  0  0  0  0
    0.7571  -13.4525   29.4020 H   0  0  0  0  0  0  0  0  0  0  0  0
    1.4073  -14.4315   30.7191 H   0  0  0  0  0  0  0  0  0  0  0  0
   -0.7943  -14.5391   31.6745 H   0  0  0  0  0  0  0  0  0  0  0  0
   -0.2427  -16.2101   30.0258 H   0  0  0  0  0  0  0  0  0  0  0  0
   -0.9792  -15.1634   28.8037 H   0  0  0  0  0  0  0  0  0  0  0  0
   -2.3202  -16.9840   32.1744 H   0  0  0  0  0  0  0  0  0  0  0  0
   -4.8792  -17.6931   31.5007 H   0  0  0  0  0  0  0  0  0  0  0  0
   -3.4017  -15.7085   28.3154 H   0  0  0  0  0  0  0  0  0  0  0  0
    1.5062   -9.5830   31.2444 H   0  0  0  0  0  0  0  0  0  0  0  0
  1  2  1  0
  2  3  1  0
  3  4  2  0
  4  5  1  0
  5  6  1  0
  6  7  1  0
  7  8  1  0
  8  9  1  0
  9 10  1  0
 10 11  2  0
 11 12  1  0
 12 13  2  0
 13 14  1  0
  5 15  1  0
 15  2  2  0
 14 10  1  0
  3 16  1  0
  6 17  1  0
  6 18  1  0
  7 19  1  0
  7 20  1  0
  8 21  1  0
  9 22  1  0
  9 23  1  0
 11 24  1  0
 12 25  1  0
 14 26  1  0
 15 27  1  0
M  END
>  <Energy>  (848) 
14.930621976281232

>  <compound_id>  (848) 
13523

>  <target_id>  (848) 
1

>  <reference_id>  (848) 
96

>  <inspiration_ids>  (848) 
[96, 122]

>  <energy_score>  (848) 
-18.587359146557674

>  <distance_score>  (848) 
15.629781007478945

>  <path>  (848) 
/opt/xchem-fragalysis-2/maxwin/BulkDock/SCRATCH/511016/C13523-P96/C13523-P96.minimised.mol

>  <scratch_subdir>  (848) 
/opt/xchem-fragalysis-2/maxwin/BulkDock/SCRATCH/511016/C13523-P96

>  <fragmenstein_runtime>  (848) 
8.635099411010742

>  <fragmenstein_outcome>  (848) 
too moved

>  <fragmenstein_mode>  (848) 
expansion

>  <fragmenstein_error>  (848) 


$$$$
C13523-P122
     RDKit          3D

 27 28  0  0  0  0  0  0  0  0999 V2000
    4.6312  -13.0680   19.4773 Cl  0  0  0  0  0  0  0  0  0  0  0  0
    3.5525  -14.2210   18.5067 C   0  0  0  0  0  0  0  0  0  0  0  0
    3.9054  -15.1226   17.6161 C   0  0  0  0  0  0  0  0  0  0  0  0
    2.7942  -15.5923   16.8346 N   0  0  0  0  0  0  0  0  0  0  0  0
    2.2103  -16.1370   17.8803 N   0  0  0  0  0  0  0  0  0  0  0  0
    1.4363  -17.8960   17.9037 C   0  0  0  0  0  0  0  0  0  0  0  0
    0.1785  -18.4003   18.9936 C   0  0  0  0  0  0  0  0  0  0  0  0
   -1.2661  -18.8362   18.8271 N   0  0  0  0  0  0  0  0  0  0  0  0
   -1.6406  -19.6789   20.0432 C   0  0  0  0  0  0  0  0  0  0  0  0
   -3.0618  -19.6817   20.5445 C   0  0  0  0  0  0  0  0  0  0  0  0
   -4.0924  -20.6001   20.4393 C   0  0  0  0  0  0  0  0  0  0  0  0
   -5.0735  -20.1816   21.3652 C   0  0  0  0  0  0  0  0  0  0  0  0
   -4.7186  -19.0651   22.0065 N   0  0  0  0  0  0  0  0  0  0  0  0
   -3.5002  -18.7842   21.4905 N   0  0  0  0  0  0  0  0  0  0  0  0
    2.2709  -14.7647   18.5012 C   0  0  0  0  0  0  0  0  0  0  0  0
    4.8338  -15.4452   17.2783 H   0  0  0  0  0  0  0  0  0  0  0  0
    1.1573  -18.1102   16.8276 H   0  0  0  0  0  0  0  0  0  0  0  0
    2.1823  -18.6738   17.8239 H   0  0  0  0  0  0  0  0  0  0  0  0
    0.6280  -19.3417   19.3447 H   0  0  0  0  0  0  0  0  0  0  0  0
    0.1192  -17.6768   19.8161 H   0  0  0  0  0  0  0  0  0  0  0  0
   -1.8537  -18.0039   18.8434 H   0  0  0  0  0  0  0  0  0  0  0  0
   -1.0193  -19.3722   20.8969 H   0  0  0  0  0  0  0  0  0  0  0  0
   -1.3536  -20.7114   19.8078 H   0  0  0  0  0  0  0  0  0  0  0  0
   -4.1056  -21.4892   19.8242 H   0  0  0  0  0  0  0  0  0  0  0  0
   -6.0212  -20.6513   21.5967 H   0  0  0  0  0  0  0  0  0  0  0  0
   -2.9889  -17.9779   21.8448 H   0  0  0  0  0  0  0  0  0  0  0  0
    1.4956  -14.1807   18.0092 H   0  0  0  0  0  0  0  0  0  0  0  0
  1  2  1  0
  2  3  1  0
  3  4  2  0
  4  5  1  0
  5  6  1  0
  6  7  1  0
  7  8  1  0
  8  9  1  0
  9 10  1  0
 10 11  2  0
 11 12  1  0
 12 13  2  0
 13 14  1  0
  5 15  1  0
 15  2  2  0
 14 10  1  0
  3 16  1  0
  6 17  1  0
  6 18  1  0
  7 19  1  0
  7 20  1  0
  8 21  1  0
  9 22  1  0
  9 23  1  0
 11 24  1  0
 12 25  1  0
 14 26  1  0
 15 27  1  0
M  END
>  <Energy>  (849) 
261.95503307843609

>  <compound_id>  (849) 
13523

>  <target_id>  (849) 
1

>  <reference_id>  (849) 
122

>  <inspiration_ids>  (849) 
[96, 122]

>  <energy_score>  (849) 
228.43705195559983

>  <distance_score>  (849) 
13.633246003995781

>  <path>  (849) 
/opt/xchem-fragalysis-2/maxwin/BulkDock/SCRATCH/511016/C13523-P122/C13523-P122.minimised.mol

>  <scratch_subdir>  (849) 
/opt/xchem-fragalysis-2/maxwin/BulkDock/SCRATCH/511016/C13523-P122

>  <fragmenstein_runtime>  (849) 
14.616696119308472

>  <fragmenstein_outcome>  (849) 
too moved

>  <fragmenstein_mode>  (849) 
expansion

>  <fragmenstein_error>  (849) 


$$$$
C13524-P96
     RDKit          3D

 45 46  0  0  0  0  0  0  0  0999 V2000
   -4.2272  -12.7918   24.4392 C   0  0  0  0  0  0  0  0  0  0  0  0
   -2.9955  -13.2456   25.2203 N   0  0  0  0  0  0  0  0  0  0  0  0
   -2.1758  -12.6997   23.7634 C   0  0  0  0  0  0  0  0  0  0  0  0
   -0.8216  -12.6747   22.2927 C   0  0  0  0  0  0  0  0  0  0  0  0
   -1.1009  -11.1337   20.8790 C   0  0  0  0  0  0  0  0  0  0  0  0
   -1.3693  -13.5766   21.1103 C   0  0  0  0  0  0  0  0  0  0  0  0
    0.6745  -11.7863   22.0513 N   0  0  0  0  0  0  0  0  0  0  0  0
    1.9915  -12.2127   21.6570 C   0  0  0  0  0  0  0  0  0  0  0  0
    2.4429  -13.2883   21.4933 O   0  0  0  0  0  0  0  0  0  0  0  0
    2.5546  -10.9316   21.4038 C   0  0  0  0  0  0  0  0  0  0  0  0
    2.9361  -10.6603   19.8284 N   0  0  0  0  0  0  0  0  0  0  0  0
    3.8676   -9.7335   19.3200 C   0  0  0  0  0  0  0  0  0  0  0  0
    4.5329  -10.3055   18.2640 C   0  0  0  0  0  0  0  0  0  0  0  0
    5.3764   -9.5363   17.1165 Cl  0  0  0  0  0  0  0  0  0  0  0  0
    3.9193  -11.4736   18.0603 C   0  0  0  0  0  0  0  0  0  0  0  0
    2.9327  -11.6462   18.9263 N   0  0  0  0  0  0  0  0  0  0  0  0
   -3.2102  -14.5944   25.7502 C   0  0  0  0  0  0  0  0  0  0  0  0
   -2.9562  -15.6751   25.2718 O   0  0  0  0  0  0  0  0  0  0  0  0
   -3.8653  -14.4973   27.1427 C   0  0  0  0  0  0  0  0  0  0  0  0
   -4.8622  -15.6033   27.3059 C   0  0  0  0  0  0  0  0  0  0  0  0
   -4.6938  -16.9704   27.3666 C   0  0  0  0  0  0  0  0  0  0  0  0
   -5.9924  -17.4748   27.3892 C   0  0  0  0  0  0  0  0  0  0  0  0
   -6.9226  -16.5225   27.4163 N   0  0  0  0  0  0  0  0  0  0  0  0
   -6.2124  -15.3916   27.3854 N   0  0  0  0  0  0  0  0  0  0  0  0
   -4.3248  -11.7207   24.2284 H   0  0  0  0  0  0  0  0  0  0  0  0
   -5.0686  -12.9731   25.1239 H   0  0  0  0  0  0  0  0  0  0  0  0
   -4.4767  -13.4322   23.5898 H   0  0  0  0  0  0  0  0  0  0  0  0
   -2.5394  -11.6898   23.7192 H   0  0  0  0  0  0  0  0  0  0  0  0
   -2.5448  -13.6599   23.3393 H   0  0  0  0  0  0  0  0  0  0  0  0
   -1.1590   -9.9491   20.7231 H   0  0  0  0  0  0  0  0  0  0  0  0
   -2.0905  -10.9777   20.0863 H   0  0  0  0  0  0  0  0  0  0  0  0
   -0.1497  -10.5110   20.7149 H   0  0  0  0  0  0  0  0  0  0  0  0
   -2.3724  -13.7062   21.3499 H   0  0  0  0  0  0  0  0  0  0  0  0
   -0.9065  -14.4915   20.6311 H   0  0  0  0  0  0  0  0  0  0  0  0
   -0.9651  -12.9317   20.4783 H   0  0  0  0  0  0  0  0  0  0  0  0
    0.6685  -10.7821   22.1762 H   0  0  0  0  0  0  0  0  0  0  0  0
    2.0979  -10.2703   22.0582 H   0  0  0  0  0  0  0  0  0  0  0  0
    1.7296  -10.4242   20.9122 H   0  0  0  0  0  0  0  0  0  0  0  0
    4.0917   -8.9538   20.0222 H   0  0  0  0  0  0  0  0  0  0  0  0
    4.0443  -12.2050   17.2988 H   0  0  0  0  0  0  0  0  0  0  0  0
   -3.0703  -14.5946   27.8904 H   0  0  0  0  0  0  0  0  0  0  0  0
   -4.3405  -13.5214   27.2867 H   0  0  0  0  0  0  0  0  0  0  0  0
   -3.7638  -17.5200   27.3251 H   0  0  0  0  0  0  0  0  0  0  0  0
   -6.2962  -18.5048   27.3834 H   0  0  0  0  0  0  0  0  0  0  0  0
   -6.7182  -14.5121   27.3991 H   0  0  0  0  0  0  0  0  0  0  0  0
  1  2  1  0
  2  3  1  0
  3  4  1  0
  4  5  1  0
  4  6  1  0
  4  7  1  0
  7  8  1  0
  8  9  2  0
  8 10  1  0
 10 11  1  0
 11 12  1  0
 12 13  2  0
 13 14  1  0
 13 15  1  0
 15 16  2  0
  2 17  1  0
 17 18  2  0
 17 19  1  0
 19 20  1  0
 20 21  2  0
 21 22  1  0
 22 23  2  0
 23 24  1  0
 16 11  1  0
 24 20  1  0
  1 25  1  0
  1 26  1  0
  1 27  1  0
  3 28  1  0
  3 29  1  0
  5 30  1  0
  5 31  1  0
  5 32  1  0
  6 33  1  0
  6 34  1  0
  6 35  1  0
  7 36  1  0
 10 37  1  0
 10 38  1  0
 12 39  1  0
 15 40  1  0
 19 41  1  0
 19 42  1  0
 21 43  1  0
 22 44  1  0
 24 45  1  0
M  END
>  <Energy>  (850) 
683.29803230254879

>  <compound_id>  (850) 
13524

>  <target_id>  (850) 
1

>  <reference_id>  (850) 
96

>  <inspiration_ids>  (850) 
[96, 122]

>  <energy_score>  (850) 
578.289889295743

>  <distance_score>  (850) 
11.120815177061939

>  <path>  (850) 
/opt/xchem-fragalysis-2/maxwin/BulkDock/SCRATCH/511016/C13524-P96/C13524-P96.minimised.mol

>  <scratch_subdir>  (850) 
/opt/xchem-fragalysis-2/maxwin/BulkDock/SCRATCH/511016/C13524-P96

>  <fragmenstein_runtime>  (850) 
25.53112506866455

>  <fragmenstein_outcome>  (850) 
too moved

>  <fragmenstein_mode>  (850) 
expansion

>  <fragmenstein_error>  (850) 


$$$$
C13524-P122
     RDKit          3D

 45 46  0  0  0  0  0  0  0  0999 V2000
   10.9844  -14.8210   23.1252 C   0  0  0  0  0  0  0  0  0  0  0  0
    9.4980  -14.7263   23.1235 N   0  0  0  0  0  0  0  0  0  0  0  0
    9.8215  -13.2774   22.4404 C   0  0  0  0  0  0  0  0  0  0  0  0
    9.6961  -13.1385   20.7651 C   0  0  0  0  0  0  0  0  0  0  0  0
   11.0847  -12.5649   20.3264 C   0  0  0  0  0  0  0  0  0  0  0  0
    9.6649  -14.5649   20.1447 C   0  0  0  0  0  0  0  0  0  0  0  0
    8.6366  -12.0311   20.0037 N   0  0  0  0  0  0  0  0  0  0  0  0
    6.8779  -11.9199   20.0354 C   0  0  0  0  0  0  0  0  0  0  0  0
    6.1132  -12.6005   20.6781 O   0  0  0  0  0  0  0  0  0  0  0  0
    6.1115  -10.8428   18.9780 C   0  0  0  0  0  0  0  0  0  0  0  0
    5.0267   -9.2701   18.5761 N   0  0  0  0  0  0  0  0  0  0  0  0
    3.6248   -8.7195   18.1609 C   0  0  0  0  0  0  0  0  0  0  0  0
    4.4902   -7.1738   17.9044 C   0  0  0  0  0  0  0  0  0  0  0  0
    4.9001   -5.9779   16.8387 Cl  0  0  0  0  0  0  0  0  0  0  0  0
    5.7211   -7.1290   18.3526 C   0  0  0  0  0  0  0  0  0  0  0  0
    5.5855   -8.0420   19.2296 N   0  0  0  0  0  0  0  0  0  0  0  0
    8.9687  -15.0627   24.4635 C   0  0  0  0  0  0  0  0  0  0  0  0
    8.7322  -14.3536   25.4117 O   0  0  0  0  0  0  0  0  0  0  0  0
    8.5804  -16.6088   24.5484 C   0  0  0  0  0  0  0  0  0  0  0  0
    7.1545  -16.9765   25.0882 C   0  0  0  0  0  0  0  0  0  0  0  0
    6.3122  -16.4234   26.0432 C   0  0  0  0  0  0  0  0  0  0  0  0
    5.1958  -17.2833   26.1404 C   0  0  0  0  0  0  0  0  0  0  0  0
    5.2802  -18.3031   25.2882 N   0  0  0  0  0  0  0  0  0  0  0  0
    6.4716  -18.1121   24.6846 N   0  0  0  0  0  0  0  0  0  0  0  0
   11.5115  -14.7059   22.1757 H   0  0  0  0  0  0  0  0  0  0  0  0
   11.4339  -14.2320   23.9394 H   0  0  0  0  0  0  0  0  0  0  0  0
   11.1993  -15.8598   23.4162 H   0  0  0  0  0  0  0  0  0  0  0  0
    9.0403  -12.6517   22.8715 H   0  0  0  0  0  0  0  0  0  0  0  0
   10.7016  -12.7358   22.8319 H   0  0  0  0  0  0  0  0  0  0  0  0
   11.2775  -11.5883   20.7807 H   0  0  0  0  0  0  0  0  0  0  0  0
   11.9111  -13.2250   20.6073 H   0  0  0  0  0  0  0  0  0  0  0  0
   11.1299  -12.4300   19.2393 H   0  0  0  0  0  0  0  0  0  0  0  0
    8.6964  -15.0385   20.2413 H   0  0  0  0  0  0  0  0  0  0  0  0
    9.9481  -14.5789   19.0884 H   0  0  0  0  0  0  0  0  0  0  0  0
   10.3828  -15.2463   20.6042 H   0  0  0  0  0  0  0  0  0  0  0  0
    9.0145  -11.2953   19.4043 H   0  0  0  0  0  0  0  0  0  0  0  0
    5.5386  -11.6481   18.5477 H   0  0  0  0  0  0  0  0  0  0  0  0
    5.5732  -10.8578   19.8981 H   0  0  0  0  0  0  0  0  0  0  0  0
    2.8381   -9.2653   17.6632 H   0  0  0  0  0  0  0  0  0  0  0  0
    6.5846   -6.4792   18.3366 H   0  0  0  0  0  0  0  0  0  0  0  0
    9.3168  -17.0784   25.2117 H   0  0  0  0  0  0  0  0  0  0  0  0
    8.6969  -17.0594   23.5562 H   0  0  0  0  0  0  0  0  0  0  0  0
    6.4967  -15.5201   26.6103 H   0  0  0  0  0  0  0  0  0  0  0  0
    4.3351  -17.1999   26.7903 H   0  0  0  0  0  0  0  0  0  0  0  0
    6.7724  -18.8064   24.0088 H   0  0  0  0  0  0  0  0  0  0  0  0
  1  2  1  0
  2  3  1  0
  3  4  1  0
  4  5  1  0
  4  6  1  0
  4  7  1  0
  7  8  1  0
  8  9  2  0
  8 10  1  0
 10 11  1  0
 11 12  1  0
 12 13  2  0
 13 14  1  0
 13 15  1  0
 15 16  2  0
  2 17  1  0
 17 18  2  0
 17 19  1  0
 19 20  1  0
 20 21  2  0
 21 22  1  0
 22 23  2  0
 23 24  1  0
 16 11  1  0
 24 20  1  0
  1 25  1  0
  1 26  1  0
  1 27  1  0
  3 28  1  0
  3 29  1  0
  5 30  1  0
  5 31  1  0
  5 32  1  0
  6 33  1  0
  6 34  1  0
  6 35  1  0
  7 36  1  0
 10 37  1  0
 10 38  1  0
 12 39  1  0
 15 40  1  0
 19 41  1  0
 19 42  1  0
 21 43  1  0
 22 44  1  0
 24 45  1  0
M  END
>  <Energy>  (851) 
563.96174611159847

>  <compound_id>  (851) 
13524

>  <target_id>  (851) 
1

>  <reference_id>  (851) 
122

>  <inspiration_ids>  (851) 
[96, 122]

>  <energy_score>  (851) 
458.9536031048109

>  <distance_score>  (851) 
15.082452944526436

>  <path>  (851) 
/opt/xchem-fragalysis-2/maxwin/BulkDock/SCRATCH/511016/C13524-P122/C13524-P122.minimised.mol

>  <scratch_subdir>  (851) 
/opt/xchem-fragalysis-2/maxwin/BulkDock/SCRATCH/511016/C13524-P122

>  <fragmenstein_runtime>  (851) 
53.53338623046875

>  <fragmenstein_outcome>  (851) 
too moved

>  <fragmenstein_mode>  (851) 
expansion

>  <fragmenstein_error>  (851) 


$$$$
C13525-P96
     RDKit          3D

 36 37  0  0  0  0  0  0  0  0999 V2000
   -1.2319  -16.2376   19.9185 C   0  0  0  0  0  0  0  0  0  0  0  0
   -1.0149  -14.5980   20.7637 C   0  0  0  0  0  0  0  0  0  0  0  0
   -1.9165  -13.8594   22.4130 C   0  0  0  0  0  0  0  0  0  0  0  0
   -3.0058  -14.0459   23.5803 N   0  0  0  0  0  0  0  0  0  0  0  0
   -3.5412  -13.0910   24.5537 C   0  0  0  0  0  0  0  0  0  0  0  0
   -3.3589  -11.9137   24.6714 O   0  0  0  0  0  0  0  0  0  0  0  0
   -4.4564  -13.6915   25.5211 C   0  0  0  0  0  0  0  0  0  0  0  0
   -4.0925  -14.4741   26.5957 N   0  0  0  0  0  0  0  0  0  0  0  0
   -5.1233  -14.8363   27.3963 N   0  0  0  0  0  0  0  0  0  0  0  0
   -6.1776  -14.2380   26.8418 C   0  0  0  0  0  0  0  0  0  0  0  0
   -5.8206  -13.5162   25.6835 C   0  0  0  0  0  0  0  0  0  0  0  0
   -6.8890  -12.6478   24.6940 Cl  0  0  0  0  0  0  0  0  0  0  0  0
    0.0256  -14.1698   20.0016 N   0  0  0  0  0  0  0  0  0  0  0  0
    0.5011  -14.6239   18.8199 C   0  0  0  0  0  0  0  0  0  0  0  0
    0.1693  -15.5692   18.2372 O   0  0  0  0  0  0  0  0  0  0  0  0
    1.8118  -13.5676   17.6986 C   0  0  0  0  0  0  0  0  0  0  0  0
    3.0483  -12.0260   17.8220 C   0  0  0  0  0  0  0  0  0  0  0  0
    4.3568  -11.8049   17.4905 C   0  0  0  0  0  0  0  0  0  0  0  0
    4.9610  -10.6920   18.0023 C   0  0  0  0  0  0  0  0  0  0  0  0
    4.0844  -10.2142   18.8167 N   0  0  0  0  0  0  0  0  0  0  0  0
    3.1564  -11.2239   18.9062 N   0  0  0  0  0  0  0  0  0  0  0  0
   -1.7489  -16.0360   18.9771 H   0  0  0  0  0  0  0  0  0  0  0  0
   -1.8662  -17.0135   20.3059 H   0  0  0  0  0  0  0  0  0  0  0  0
   -0.2884  -16.7599   19.8937 H   0  0  0  0  0  0  0  0  0  0  0  0
   -1.8504  -13.9482   20.3892 H   0  0  0  0  0  0  0  0  0  0  0  0
   -1.3537  -12.9537   22.6478 H   0  0  0  0  0  0  0  0  0  0  0  0
   -2.8446  -13.8573   21.8532 H   0  0  0  0  0  0  0  0  0  0  0  0
   -3.4353  -14.9403   23.7275 H   0  0  0  0  0  0  0  0  0  0  0  0
   -3.1660  -14.8254   26.8199 H   0  0  0  0  0  0  0  0  0  0  0  0
   -7.1524  -14.3529   27.2986 H   0  0  0  0  0  0  0  0  0  0  0  0
    0.4484  -13.2933   20.1894 H   0  0  0  0  0  0  0  0  0  0  0  0
    2.4008  -14.2630   17.0548 H   0  0  0  0  0  0  0  0  0  0  0  0
    1.2364  -13.2834   16.7871 H   0  0  0  0  0  0  0  0  0  0  0  0
    4.7985  -12.5932   17.0272 H   0  0  0  0  0  0  0  0  0  0  0  0
    5.9288  -10.2177   17.9596 H   0  0  0  0  0  0  0  0  0  0  0  0
    2.4574  -11.1638   19.6386 H   0  0  0  0  0  0  0  0  0  0  0  0
  1  2  1  0
  2  3  1  0
  3  4  1  0
  4  5  1  0
  5  6  2  0
  5  7  1  0
  7  8  1  0
  8  9  1  0
  9 10  2  0
 10 11  1  0
 11 12  1  0
  2 13  1  0
 13 14  1  0
 14 15  2  0
 14 16  1  0
 16 17  1  0
 17 18  2  0
 18 19  1  0
 19 20  2  0
 20 21  1  0
 11  7  2  0
 21 17  1  0
  1 22  1  0
  1 23  1  0
  1 24  1  0
  2 25  1  0
  3 26  1  0
  3 27  1  0
  4 28  1  0
  8 29  1  0
 10 30  1  0
 13 31  1  0
 16 32  1  0
 16 33  1  0
 18 34  1  0
 19 35  1  0
 21 36  1  0
M  END
>  <Energy>  (852) 
392.75042704826961

>  <compound_id>  (852) 
13525

>  <target_id>  (852) 
1

>  <reference_id>  (852) 
96

>  <inspiration_ids>  (852) 
[96, 122]

>  <energy_score>  (852) 
368.5042326274224

>  <distance_score>  (852) 
12.481219409685732

>  <path>  (852) 
/opt/xchem-fragalysis-2/maxwin/BulkDock/SCRATCH/511016/C13525-P96/C13525-P96.minimised.mol

>  <scratch_subdir>  (852) 
/opt/xchem-fragalysis-2/maxwin/BulkDock/SCRATCH/511016/C13525-P96

>  <fragmenstein_runtime>  (852) 
29.214220762252808

>  <fragmenstein_outcome>  (852) 
too moved

>  <fragmenstein_mode>  (852) 
expansion

>  <fragmenstein_error>  (852) 


$$$$
C13525-P122
     RDKit          3D

 36 37  0  0  0  0  0  0  0  0999 V2000
   -4.3926   -8.9436   21.2371 C   0  0  0  0  0  0  0  0  0  0  0  0
   -3.5540   -8.1019   22.1921 C   0  0  0  0  0  0  0  0  0  0  0  0
   -3.7661   -8.4698   23.7039 C   0  0  0  0  0  0  0  0  0  0  0  0
   -4.2803   -9.7946   24.1094 N   0  0  0  0  0  0  0  0  0  0  0  0
   -4.1865  -10.5026   25.3650 C   0  0  0  0  0  0  0  0  0  0  0  0
   -3.5996  -10.2296   26.3709 O   0  0  0  0  0  0  0  0  0  0  0  0
   -5.0085  -11.7321   25.4498 C   0  0  0  0  0  0  0  0  0  0  0  0
   -4.7053  -12.7307   26.3613 N   0  0  0  0  0  0  0  0  0  0  0  0
   -5.5348  -13.7952   26.3564 N   0  0  0  0  0  0  0  0  0  0  0  0
   -6.4424  -13.4615   25.4397 C   0  0  0  0  0  0  0  0  0  0  0  0
   -6.1819  -12.1915   24.8714 C   0  0  0  0  0  0  0  0  0  0  0  0
   -7.1879  -11.4171   23.7425 Cl  0  0  0  0  0  0  0  0  0  0  0  0
   -2.1679   -7.9981   21.6732 N   0  0  0  0  0  0  0  0  0  0  0  0
   -1.2601   -6.8486   21.5813 C   0  0  0  0  0  0  0  0  0  0  0  0
   -1.3831   -5.7224   21.9765 O   0  0  0  0  0  0  0  0  0  0  0  0
   -0.0089   -7.2355   20.7302 C   0  0  0  0  0  0  0  0  0  0  0  0
    0.8858   -6.0951   20.2351 C   0  0  0  0  0  0  0  0  0  0  0  0
    1.4704   -5.8568   18.9979 C   0  0  0  0  0  0  0  0  0  0  0  0
    2.3785   -4.7985   19.2005 C   0  0  0  0  0  0  0  0  0  0  0  0
    2.3583   -4.3618   20.4597 N   0  0  0  0  0  0  0  0  0  0  0  0
    1.4005   -5.1131   21.0458 N   0  0  0  0  0  0  0  0  0  0  0  0
   -5.4356   -9.0008   21.5636 H   0  0  0  0  0  0  0  0  0  0  0  0
   -4.3822   -8.5065   20.2320 H   0  0  0  0  0  0  0  0  0  0  0  0
   -3.9906   -9.9558   21.1453 H   0  0  0  0  0  0  0  0  0  0  0  0
   -3.9177   -7.0683   22.1085 H   0  0  0  0  0  0  0  0  0  0  0  0
   -4.5395   -7.7879   24.0825 H   0  0  0  0  0  0  0  0  0  0  0  0
   -2.8767   -8.2350   24.2923 H   0  0  0  0  0  0  0  0  0  0  0  0
   -4.9375  -10.2832   23.5008 H   0  0  0  0  0  0  0  0  0  0  0  0
   -3.9317  -12.7182   27.0189 H   0  0  0  0  0  0  0  0  0  0  0  0
   -7.2592  -14.1406   25.2341 H   0  0  0  0  0  0  0  0  0  0  0  0
   -1.7713   -8.7782   21.1534 H   0  0  0  0  0  0  0  0  0  0  0  0
    0.5982   -7.9145   21.3403 H   0  0  0  0  0  0  0  0  0  0  0  0
   -0.3568   -7.7870   19.8483 H   0  0  0  0  0  0  0  0  0  0  0  0
    1.3164   -6.4266   18.0922 H   0  0  0  0  0  0  0  0  0  0  0  0
    3.0550   -4.3413   18.4910 H   0  0  0  0  0  0  0  0  0  0  0  0
    1.1589   -4.9222   22.0135 H   0  0  0  0  0  0  0  0  0  0  0  0
  1  2  1  0
  2  3  1  0
  3  4  1  0
  4  5  1  0
  5  6  2  0
  5  7  1  0
  7  8  1  0
  8  9  1  0
  9 10  2  0
 10 11  1  0
 11 12  1  0
  2 13  1  0
 13 14  1  0
 14 15  2  0
 14 16  1  0
 16 17  1  0
 17 18  2  0
 18 19  1  0
 19 20  2  0
 20 21  1  0
 11  7  2  0
 21 17  1  0
  1 22  1  0
  1 23  1  0
  1 24  1  0
  2 25  1  0
  3 26  1  0
  3 27  1  0
  4 28  1  0
  8 29  1  0
 10 30  1  0
 13 31  1  0
 16 32  1  0
 16 33  1  0
 18 34  1  0
 19 35  1  0
 21 36  1  0
M  END
>  <Energy>  (853) 
9.8824590945774951

>  <compound_id>  (853) 
13525

>  <target_id>  (853) 
1

>  <reference_id>  (853) 
122

>  <inspiration_ids>  (853) 
[96, 122]

>  <energy_score>  (853) 
-14.363735326264077

>  <distance_score>  (853) 
12.82213083330452

>  <path>  (853) 
/opt/xchem-fragalysis-2/maxwin/BulkDock/SCRATCH/511016/C13525-P122/C13525-P122.minimised.mol

>  <scratch_subdir>  (853) 
/opt/xchem-fragalysis-2/maxwin/BulkDock/SCRATCH/511016/C13525-P122

>  <fragmenstein_runtime>  (853) 
36.800172328948975

>  <fragmenstein_outcome>  (853) 
too moved

>  <fragmenstein_mode>  (853) 
expansion

>  <fragmenstein_error>  (853) 


$$$$
C13526-P96
     RDKit          3D

 36 37  0  0  0  0  0  0  0  0999 V2000
    0.6948  -11.2952   24.1441 C   0  0  0  0  0  0  0  0  0  0  0  0
    0.5709  -12.0042   22.5513 C   0  0  0  0  0  0  0  0  0  0  0  0
   -1.4174  -12.4653   23.0596 C   0  0  0  0  0  0  0  0  0  0  0  0
   -2.0565  -13.0688   24.1834 N   0  0  0  0  0  0  0  0  0  0  0  0
   -2.9509  -14.0105   24.2642 C   0  0  0  0  0  0  0  0  0  0  0  0
   -3.5657  -14.5530   23.4464 O   0  0  0  0  0  0  0  0  0  0  0  0
   -2.7981  -14.3661   26.2727 C   0  0  0  0  0  0  0  0  0  0  0  0
   -3.1730  -15.5973   27.1764 C   0  0  0  0  0  0  0  0  0  0  0  0
   -2.6421  -16.8836   27.2770 C   0  0  0  0  0  0  0  0  0  0  0  0
   -3.3435  -17.5326   28.3103 C   0  0  0  0  0  0  0  0  0  0  0  0
   -4.1507  -16.6941   28.9531 N   0  0  0  0  0  0  0  0  0  0  0  0
   -3.9596  -15.5267   28.3128 N   0  0  0  0  0  0  0  0  0  0  0  0
    2.2663  -11.4034   22.5070 N   0  0  0  0  0  0  0  0  0  0  0  0
    3.6067  -11.6953   23.5835 C   0  0  0  0  0  0  0  0  0  0  0  0
    3.6378  -12.4565   24.5097 O   0  0  0  0  0  0  0  0  0  0  0  0
    5.1284  -10.6270   23.4520 C   0  0  0  0  0  0  0  0  0  0  0  0
    5.7426   -9.8442   22.4016 N   0  0  0  0  0  0  0  0  0  0  0  0
    7.0432   -9.5633   22.5917 N   0  0  0  0  0  0  0  0  0  0  0  0
    7.0317   -9.3617   23.8987 C   0  0  0  0  0  0  0  0  0  0  0  0
    5.7632   -9.7403   24.4073 C   0  0  0  0  0  0  0  0  0  0  0  0
    5.1583   -8.8436   25.7369 Cl  0  0  0  0  0  0  0  0  0  0  0  0
    0.2193  -11.7830   24.8849 H   0  0  0  0  0  0  0  0  0  0  0  0
    0.3548  -10.2639   24.2625 H   0  0  0  0  0  0  0  0  0  0  0  0
    1.5935  -11.5895   24.6619 H   0  0  0  0  0  0  0  0  0  0  0  0
    0.7001  -10.9924   21.9275 H   0  0  0  0  0  0  0  0  0  0  0  0
   -1.5434  -13.1799   22.2598 H   0  0  0  0  0  0  0  0  0  0  0  0
   -2.0742  -11.6712   23.4699 H   0  0  0  0  0  0  0  0  0  0  0  0
   -1.8074  -12.7869   25.1166 H   0  0  0  0  0  0  0  0  0  0  0  0
   -2.6281  -13.4505   26.8448 H   0  0  0  0  0  0  0  0  0  0  0  0
   -1.7849  -14.7414   26.3248 H   0  0  0  0  0  0  0  0  0  0  0  0
   -1.9129  -17.3197   26.6184 H   0  0  0  0  0  0  0  0  0  0  0  0
   -3.2776  -18.5637   28.6300 H   0  0  0  0  0  0  0  0  0  0  0  0
   -4.4292  -14.7201   28.7018 H   0  0  0  0  0  0  0  0  0  0  0  0
    2.5491  -10.7836   21.7827 H   0  0  0  0  0  0  0  0  0  0  0  0
    5.3415   -9.4713   21.5526 H   0  0  0  0  0  0  0  0  0  0  0  0
    7.8446   -8.8290   24.3753 H   0  0  0  0  0  0  0  0  0  0  0  0
  1  2  1  0
  2  3  1  0
  3  4  1  0
  4  5  1  0
  5  6  2  0
  5  7  1  0
  7  8  1  0
  8  9  2  0
  9 10  1  0
 10 11  2  0
 11 12  1  0
  2 13  1  0
 13 14  1  0
 14 15  2  0
 14 16  1  0
 16 17  1  0
 17 18  1  0
 18 19  2  0
 19 20  1  0
 20 21  1  0
 12  8  1  0
 20 16  2  0
  1 22  1  0
  1 23  1  0
  1 24  1  0
  2 25  1  0
  3 26  1  0
  3 27  1  0
  4 28  1  0
  7 29  1  0
  7 30  1  0
  9 31  1  0
 10 32  1  0
 12 33  1  0
 13 34  1  0
 17 35  1  0
 19 36  1  0
M  END
>  <Energy>  (854) 
525.01315591166895

>  <compound_id>  (854) 
13526

>  <target_id>  (854) 
1

>  <reference_id>  (854) 
96

>  <inspiration_ids>  (854) 
[96, 122]

>  <energy_score>  (854) 
500.3422839810821

>  <distance_score>  (854) 
11.850909486234954

>  <path>  (854) 
/opt/xchem-fragalysis-2/maxwin/BulkDock/SCRATCH/511016/C13526-P96/C13526-P96.minimised.mol

>  <scratch_subdir>  (854) 
/opt/xchem-fragalysis-2/maxwin/BulkDock/SCRATCH/511016/C13526-P96

>  <fragmenstein_runtime>  (854) 
16.856045722961426

>  <fragmenstein_outcome>  (854) 
too moved

>  <fragmenstein_mode>  (854) 
expansion

>  <fragmenstein_error>  (854) 


$$$$
C13526-P122
     RDKit          3D

 36 37  0  0  0  0  0  0  0  0999 V2000
   -1.8244   -7.7514   17.9997 C   0  0  0  0  0  0  0  0  0  0  0  0
   -0.7910   -8.8930   18.0571 C   0  0  0  0  0  0  0  0  0  0  0  0
   -1.8799  -10.4789   18.3133 C   0  0  0  0  0  0  0  0  0  0  0  0
   -1.7385  -12.0961   18.8850 N   0  0  0  0  0  0  0  0  0  0  0  0
   -1.9021  -13.5625   18.0777 C   0  0  0  0  0  0  0  0  0  0  0  0
   -2.0762  -13.7789   16.8972 O   0  0  0  0  0  0  0  0  0  0  0  0
   -1.8616  -15.1901   19.1752 C   0  0  0  0  0  0  0  0  0  0  0  0
   -2.7144  -16.6879   18.9021 C   0  0  0  0  0  0  0  0  0  0  0  0
   -3.7898  -17.1648   18.1202 C   0  0  0  0  0  0  0  0  0  0  0  0
   -4.0405  -18.4883   18.4842 C   0  0  0  0  0  0  0  0  0  0  0  0
   -3.1491  -18.8859   19.3710 N   0  0  0  0  0  0  0  0  0  0  0  0
   -2.4494  -17.7674   19.6732 N   0  0  0  0  0  0  0  0  0  0  0  0
    0.9950   -8.5605   18.3208 N   0  0  0  0  0  0  0  0  0  0  0  0
    2.2166   -8.0496   17.2456 C   0  0  0  0  0  0  0  0  0  0  0  0
    2.0474   -7.9141   16.0574 O   0  0  0  0  0  0  0  0  0  0  0  0
    3.9490   -7.4523   17.7022 C   0  0  0  0  0  0  0  0  0  0  0  0
    4.7328   -6.4030   16.6825 N   0  0  0  0  0  0  0  0  0  0  0  0
    4.7120   -5.1565   17.1038 N   0  0  0  0  0  0  0  0  0  0  0  0
    4.8996   -5.4252   18.3948 C   0  0  0  0  0  0  0  0  0  0  0  0
    5.0073   -6.7992   18.4029 C   0  0  0  0  0  0  0  0  0  0  0  0
    6.6774   -6.5584   18.3326 Cl  0  0  0  0  0  0  0  0  0  0  0  0
   -1.3862   -6.7560   17.9840 H   0  0  0  0  0  0  0  0  0  0  0  0
   -2.4065   -7.8172   17.0656 H   0  0  0  0  0  0  0  0  0  0  0  0
   -2.5986   -7.8938   18.7576 H   0  0  0  0  0  0  0  0  0  0  0  0
   -0.7138   -8.7423   16.9608 H   0  0  0  0  0  0  0  0  0  0  0  0
   -2.3738  -10.1127   19.2292 H   0  0  0  0  0  0  0  0  0  0  0  0
   -2.7039  -10.4662   17.5984 H   0  0  0  0  0  0  0  0  0  0  0  0
   -1.6889  -12.2584   19.8805 H   0  0  0  0  0  0  0  0  0  0  0  0
   -2.1481  -14.9719   20.2136 H   0  0  0  0  0  0  0  0  0  0  0  0
   -0.9029  -15.5625   19.3888 H   0  0  0  0  0  0  0  0  0  0  0  0
   -4.3181  -16.6244   17.3442 H   0  0  0  0  0  0  0  0  0  0  0  0
   -4.7825  -19.1803   18.1095 H   0  0  0  0  0  0  0  0  0  0  0  0
   -1.7518  -17.8181   20.4045 H   0  0  0  0  0  0  0  0  0  0  0  0
    1.3954   -8.6762   19.2294 H   0  0  0  0  0  0  0  0  0  0  0  0
    5.6738   -6.6286   16.3578 H   0  0  0  0  0  0  0  0  0  0  0  0
    4.6100   -4.7070   19.1767 H   0  0  0  0  0  0  0  0  0  0  0  0
  1  2  1  0
  2  3  1  0
  3  4  1  0
  4  5  1  0
  5  6  2  0
  5  7  1  0
  7  8  1  0
  8  9  2  0
  9 10  1  0
 10 11  2  0
 11 12  1  0
  2 13  1  0
 13 14  1  0
 14 15  2  0
 14 16  1  0
 16 17  1  0
 17 18  1  0
 18 19  2  0
 19 20  1  0
 20 21  1  0
 12  8  1  0
 20 16  2  0
  1 22  1  0
  1 23  1  0
  1 24  1  0
  2 25  1  0
  3 26  1  0
  3 27  1  0
  4 28  1  0
  7 29  1  0
  7 30  1  0
  9 31  1  0
 10 32  1  0
 12 33  1  0
 13 34  1  0
 17 35  1  0
 19 36  1  0
M  END
>  <Energy>  (855) 
546.0472407293571

>  <compound_id>  (855) 
13526

>  <target_id>  (855) 
1

>  <reference_id>  (855) 
122

>  <inspiration_ids>  (855) 
[96, 122]

>  <energy_score>  (855) 
521.3763687987531

>  <distance_score>  (855) 
12.293624906160547

>  <path>  (855) 
/opt/xchem-fragalysis-2/maxwin/BulkDock/SCRATCH/511016/C13526-P122/C13526-P122.minimised.mol

>  <scratch_subdir>  (855) 
/opt/xchem-fragalysis-2/maxwin/BulkDock/SCRATCH/511016/C13526-P122

>  <fragmenstein_runtime>  (855) 
20.599607229232788

>  <fragmenstein_outcome>  (855) 
too moved

>  <fragmenstein_mode>  (855) 
expansion

>  <fragmenstein_error>  (855) 


$$$$
C13527-P96
     RDKit          3D

 36 37  0  0  0  0  0  0  0  0999 V2000
    0.9460  -13.9466   16.2165 C   0  0  0  0  0  0  0  0  0  0  0  0
    0.9247  -12.7380   15.7124 N   0  0  0  0  0  0  0  0  0  0  0  0
   -0.7448  -13.0915   16.3656 C   0  0  0  0  0  0  0  0  0  0  0  0
   -2.6893  -13.5434   15.8781 C   0  0  0  0  0  0  0  0  0  0  0  0
   -3.8900  -14.7245   15.1611 N   0  0  0  0  0  0  0  0  0  0  0  0
   -4.6261  -15.9883   15.8061 C   0  0  0  0  0  0  0  0  0  0  0  0
   -4.4903  -16.5057   16.9133 O   0  0  0  0  0  0  0  0  0  0  0  0
   -5.7110  -16.6784   14.9201 C   0  0  0  0  0  0  0  0  0  0  0  0
   -6.4795  -17.7564   15.7796 C   0  0  0  0  0  0  0  0  0  0  0  0
   -6.0388  -18.8457   16.5269 C   0  0  0  0  0  0  0  0  0  0  0  0
   -7.1553  -19.2966   17.2628 C   0  0  0  0  0  0  0  0  0  0  0  0
   -8.2545  -18.6004   16.9680 N   0  0  0  0  0  0  0  0  0  0  0  0
   -7.8297  -17.7106   16.0468 N   0  0  0  0  0  0  0  0  0  0  0  0
    2.0941  -11.4080   16.0917 C   0  0  0  0  0  0  0  0  0  0  0  0
    2.9814  -11.3754   16.9058 O   0  0  0  0  0  0  0  0  0  0  0  0
    1.7496   -9.7554   15.1273 C   0  0  0  0  0  0  0  0  0  0  0  0
    0.6566   -8.9841   15.8091 N   0  0  0  0  0  0  0  0  0  0  0  0
   -0.1329   -8.1102   15.2320 N   0  0  0  0  0  0  0  0  0  0  0  0
    0.8429   -7.3635   15.5256 C   0  0  0  0  0  0  0  0  0  0  0  0
    2.0193   -8.1223   15.6324 C   0  0  0  0  0  0  0  0  0  0  0  0
    3.3093   -6.3496   15.2597 Cl  0  0  0  0  0  0  0  0  0  0  0  0
    1.2476  -14.0699   17.2454 H   0  0  0  0  0  0  0  0  0  0  0  0
    2.0734  -13.9771   16.3035 H   0  0  0  0  0  0  0  0  0  0  0  0
    1.2533  -14.5662   15.3543 H   0  0  0  0  0  0  0  0  0  0  0  0
   -1.2863  -12.1599   16.4086 H   0  0  0  0  0  0  0  0  0  0  0  0
   -0.6772  -13.4239   15.3451 H   0  0  0  0  0  0  0  0  0  0  0  0
   -2.3268  -13.8990   14.9372 H   0  0  0  0  0  0  0  0  0  0  0  0
   -2.7590  -14.0636   16.8260 H   0  0  0  0  0  0  0  0  0  0  0  0
   -4.1798  -14.6226   14.2039 H   0  0  0  0  0  0  0  0  0  0  0  0
   -5.2240  -17.1749   14.0761 H   0  0  0  0  0  0  0  0  0  0  0  0
   -6.4137  -15.9203   14.5623 H   0  0  0  0  0  0  0  0  0  0  0  0
   -5.0199  -19.2015   16.5991 H   0  0  0  0  0  0  0  0  0  0  0  0
   -7.2067  -20.0932   17.9944 H   0  0  0  0  0  0  0  0  0  0  0  0
   -8.5098  -17.0551   15.6808 H   0  0  0  0  0  0  0  0  0  0  0  0
    0.5380   -8.9443   16.8232 H   0  0  0  0  0  0  0  0  0  0  0  0
    0.7560   -6.4625   16.0518 H   0  0  0  0  0  0  0  0  0  0  0  0
  1  2  1  0
  2  3  1  0
  3  4  1  0
  4  5  1  0
  5  6  1  0
  6  7  2  0
  6  8  1  0
  8  9  1  0
  9 10  2  0
 10 11  1  0
 11 12  2  0
 12 13  1  0
  2 14  1  0
 14 15  2  0
 14 16  1  0
 16 17  1  0
 17 18  1  0
 18 19  2  0
 19 20  1  0
 20 21  1  0
 13  9  1  0
 20 16  2  0
  1 22  1  0
  1 23  1  0
  1 24  1  0
  3 25  1  0
  3 26  1  0
  4 27  1  0
  4 28  1  0
  5 29  1  0
  8 30  1  0
  8 31  1  0
 10 32  1  0
 11 33  1  0
 13 34  1  0
 17 35  1  0
 19 36  1  0
M  END
>  <Energy>  (856) 
799.45093197188282

>  <compound_id>  (856) 
13527

>  <target_id>  (856) 
1

>  <reference_id>  (856) 
96

>  <inspiration_ids>  (856) 
[96, 122]

>  <energy_score>  (856) 
761.856602434344

>  <distance_score>  (856) 
13.675133455292592

>  <path>  (856) 
/opt/xchem-fragalysis-2/maxwin/BulkDock/SCRATCH/511016/C13527-P96/C13527-P96.minimised.mol

>  <scratch_subdir>  (856) 
/opt/xchem-fragalysis-2/maxwin/BulkDock/SCRATCH/511016/C13527-P96

>  <fragmenstein_runtime>  (856) 
20.079615831375122

>  <fragmenstein_outcome>  (856) 
too moved

>  <fragmenstein_mode>  (856) 
expansion

>  <fragmenstein_error>  (856) 


$$$$
C13527-P122
     RDKit          3D

 36 37  0  0  0  0  0  0  0  0999 V2000
    5.3666  -12.4240   13.9550 C   0  0  0  0  0  0  0  0  0  0  0  0
    5.1990  -11.0849   13.8791 N   0  0  0  0  0  0  0  0  0  0  0  0
    3.7365  -11.5236   15.1811 C   0  0  0  0  0  0  0  0  0  0  0  0
    1.8986  -12.6198   15.5286 C   0  0  0  0  0  0  0  0  0  0  0  0
    0.9987  -13.7320   16.9418 N   0  0  0  0  0  0  0  0  0  0  0  0
   -0.7326  -13.6246   17.6805 C   0  0  0  0  0  0  0  0  0  0  0  0
   -1.6135  -12.7933   17.4957 O   0  0  0  0  0  0  0  0  0  0  0  0
   -1.4434  -15.1272   18.8695 C   0  0  0  0  0  0  0  0  0  0  0  0
   -2.3305  -16.6878   18.8522 C   0  0  0  0  0  0  0  0  0  0  0  0
   -2.2472  -18.0426   18.4382 C   0  0  0  0  0  0  0  0  0  0  0  0
   -3.4508  -18.7004   18.7225 C   0  0  0  0  0  0  0  0  0  0  0  0
   -4.1284  -17.9056   19.5171 N   0  0  0  0  0  0  0  0  0  0  0  0
   -3.1446  -17.0344   19.8955 N   0  0  0  0  0  0  0  0  0  0  0  0
    4.7250  -10.2419   12.7507 C   0  0  0  0  0  0  0  0  0  0  0  0
    4.2837  -10.5563   11.6695 O   0  0  0  0  0  0  0  0  0  0  0  0
    4.8939   -8.8045   12.8156 C   0  0  0  0  0  0  0  0  0  0  0  0
    6.1894   -8.4159   13.1312 N   0  0  0  0  0  0  0  0  0  0  0  0
    7.0653   -8.5983   12.1242 N   0  0  0  0  0  0  0  0  0  0  0  0
    6.2494   -8.4487   11.0736 C   0  0  0  0  0  0  0  0  0  0  0  0
    4.9141   -8.1780   11.5326 C   0  0  0  0  0  0  0  0  0  0  0  0
    3.6627   -7.7088   10.4763 Cl  0  0  0  0  0  0  0  0  0  0  0  0
    5.4947  -12.5448   12.8606 H   0  0  0  0  0  0  0  0  0  0  0  0
    6.3152  -12.9841   13.9516 H   0  0  0  0  0  0  0  0  0  0  0  0
    4.6073  -12.9632   14.2706 H   0  0  0  0  0  0  0  0  0  0  0  0
    3.8461  -11.1073   16.1668 H   0  0  0  0  0  0  0  0  0  0  0  0
    3.3668  -10.6541   14.6379 H   0  0  0  0  0  0  0  0  0  0  0  0
    1.2626  -12.4033   14.5802 H   0  0  0  0  0  0  0  0  0  0  0  0
    2.2453  -13.3200   14.9109 H   0  0  0  0  0  0  0  0  0  0  0  0
    1.5183  -14.4870   17.3521 H   0  0  0  0  0  0  0  0  0  0  0  0
   -1.9060  -14.7182   19.7591 H   0  0  0  0  0  0  0  0  0  0  0  0
   -0.6822  -15.6138   19.4730 H   0  0  0  0  0  0  0  0  0  0  0  0
   -1.4791  -18.5260   17.8603 H   0  0  0  0  0  0  0  0  0  0  0  0
   -3.8304  -19.6685   18.4249 H   0  0  0  0  0  0  0  0  0  0  0  0
   -3.1957  -16.5891   20.8053 H   0  0  0  0  0  0  0  0  0  0  0  0
    6.5651   -8.1556   14.0233 H   0  0  0  0  0  0  0  0  0  0  0  0
    6.6505   -8.4168   10.0689 H   0  0  0  0  0  0  0  0  0  0  0  0
  1  2  1  0
  2  3  1  0
  3  4  1  0
  4  5  1  0
  5  6  1  0
  6  7  2  0
  6  8  1  0
  8  9  1  0
  9 10  2  0
 10 11  1  0
 11 12  2  0
 12 13  1  0
  2 14  1  0
 14 15  2  0
 14 16  1  0
 16 17  1  0
 17 18  1  0
 18 19  2  0
 19 20  1  0
 20 21  1  0
 13  9  1  0
 20 16  2  0
  1 22  1  0
  1 23  1  0
  1 24  1  0
  3 25  1  0
  3 26  1  0
  4 27  1  0
  4 28  1  0
  5 29  1  0
  8 30  1  0
  8 31  1  0
 10 32  1  0
 11 33  1  0
 13 34  1  0
 17 35  1  0
 19 36  1  0
M  END
>  <Energy>  (857) 
742.93788709194473

>  <compound_id>  (857) 
13527

>  <target_id>  (857) 
1

>  <reference_id>  (857) 
122

>  <inspiration_ids>  (857) 
[96, 122]

>  <energy_score>  (857) 
705.3435575544249

>  <distance_score>  (857) 
12.507082558374613

>  <path>  (857) 
/opt/xchem-fragalysis-2/maxwin/BulkDock/SCRATCH/511016/C13527-P122/C13527-P122.minimised.mol

>  <scratch_subdir>  (857) 
/opt/xchem-fragalysis-2/maxwin/BulkDock/SCRATCH/511016/C13527-P122

>  <fragmenstein_runtime>  (857) 
23.365030765533447

>  <fragmenstein_outcome>  (857) 
too moved

>  <fragmenstein_mode>  (857) 
expansion

>  <fragmenstein_error>  (857) 


$$$$
C13528-P96
     RDKit          3D

 39 40  0  0  0  0  0  0  0  0999 V2000
   -0.8979  -13.1743   20.9451 C   0  0  0  0  0  0  0  0  0  0  0  0
    0.1754  -12.5562   22.3601 C   0  0  0  0  0  0  0  0  0  0  0  0
   -1.5778  -12.6877   23.2971 C   0  0  0  0  0  0  0  0  0  0  0  0
   -2.6912  -13.0688   24.5146 N   0  0  0  0  0  0  0  0  0  0  0  0
   -4.0029  -13.7141   24.4468 C   0  0  0  0  0  0  0  0  0  0  0  0
   -4.6542  -14.0637   23.5016 O   0  0  0  0  0  0  0  0  0  0  0  0
   -4.5649  -13.9549   25.8746 C   0  0  0  0  0  0  0  0  0  0  0  0
   -4.8933  -15.3981   26.1846 C   0  0  0  0  0  0  0  0  0  0  0  0
   -4.1134  -16.5353   26.2798 C   0  0  0  0  0  0  0  0  0  0  0  0
   -4.9682  -17.5329   26.7839 C   0  0  0  0  0  0  0  0  0  0  0  0
   -6.2081  -17.0833   26.9708 N   0  0  0  0  0  0  0  0  0  0  0  0
   -6.1533  -15.8061   26.5560 N   0  0  0  0  0  0  0  0  0  0  0  0
    1.6704  -11.5474   21.4974 N   0  0  0  0  0  0  0  0  0  0  0  0
    2.4510  -11.7143   19.7552 C   0  0  0  0  0  0  0  0  0  0  0  0
    2.0708  -12.6030   19.0653 O   0  0  0  0  0  0  0  0  0  0  0  0
    3.7704  -10.7236   18.8121 C   0  0  0  0  0  0  0  0  0  0  0  0
    4.8547  -10.4439   17.3457 N   0  0  0  0  0  0  0  0  0  0  0  0
    5.6767   -9.3865   17.5497 C   0  0  0  0  0  0  0  0  0  0  0  0
    6.5998   -8.6223   16.7272 C   0  0  0  0  0  0  0  0  0  0  0  0
    8.0636   -6.9200   16.8500 Cl  0  0  0  0  0  0  0  0  0  0  0  0
    6.2270   -9.1988   15.6704 C   0  0  0  0  0  0  0  0  0  0  0  0
    4.7929   -9.7572   16.1738 N   0  0  0  0  0  0  0  0  0  0  0  0
   -0.0857  -13.6556   20.4275 H   0  0  0  0  0  0  0  0  0  0  0  0
   -1.7884  -13.5465   21.3773 H   0  0  0  0  0  0  0  0  0  0  0  0
   -1.0487  -14.2697   20.6893 H   0  0  0  0  0  0  0  0  0  0  0  0
    0.8521  -13.3419   22.0383 H   0  0  0  0  0  0  0  0  0  0  0  0
   -1.9080  -13.6554   22.9501 H   0  0  0  0  0  0  0  0  0  0  0  0
   -2.0517  -11.7541   23.5310 H   0  0  0  0  0  0  0  0  0  0  0  0
   -2.4091  -12.9934   25.4850 H   0  0  0  0  0  0  0  0  0  0  0  0
   -3.8694  -13.5958   26.6408 H   0  0  0  0  0  0  0  0  0  0  0  0
   -5.4658  -13.3346   25.9625 H   0  0  0  0  0  0  0  0  0  0  0  0
   -3.0582  -16.6228   26.0594 H   0  0  0  0  0  0  0  0  0  0  0  0
   -4.7327  -18.5600   27.0293 H   0  0  0  0  0  0  0  0  0  0  0  0
   -7.0042  -15.2545   26.5993 H   0  0  0  0  0  0  0  0  0  0  0  0
    2.1421  -10.8149   21.9902 H   0  0  0  0  0  0  0  0  0  0  0  0
    3.2951  -11.2371   17.9454 H   0  0  0  0  0  0  0  0  0  0  0  0
    4.5758  -11.4677   18.9055 H   0  0  0  0  0  0  0  0  0  0  0  0
    5.2033   -9.2731   18.5159 H   0  0  0  0  0  0  0  0  0  0  0  0
    6.6163   -9.3390   14.6583 H   0  0  0  0  0  0  0  0  0  0  0  0
  1  2  1  0
  2  3  1  0
  3  4  1  0
  4  5  1  0
  5  6  2  0
  5  7  1  0
  7  8  1  0
  8  9  2  0
  9 10  1  0
 10 11  2  0
 11 12  1  0
  2 13  1  0
 13 14  1  0
 14 15  2  0
 14 16  1  0
 16 17  1  0
 17 18  1  0
 18 19  2  0
 19 20  1  0
 19 21  1  0
 21 22  2  0
 12  8  1  0
 22 17  1  0
  1 23  1  0
  1 24  1  0
  1 25  1  0
  2 26  1  0
  3 27  1  0
  3 28  1  0
  4 29  1  0
  7 30  1  0
  7 31  1  0
  9 32  1  0
 10 33  1  0
 12 34  1  0
 13 35  1  0
 16 36  1  0
 16 37  1  0
 18 38  1  0
 21 39  1  0
M  END
>  <Energy>  (858) 
950.12117446508739

>  <compound_id>  (858) 
13528

>  <target_id>  (858) 
1

>  <reference_id>  (858) 
96

>  <inspiration_ids>  (858) 
[96, 122]

>  <energy_score>  (858) 
882.5792942151015

>  <distance_score>  (858) 
9.83122222381985

>  <path>  (858) 
/opt/xchem-fragalysis-2/maxwin/BulkDock/SCRATCH/511016/C13528-P96/C13528-P96.minimised.mol

>  <scratch_subdir>  (858) 
/opt/xchem-fragalysis-2/maxwin/BulkDock/SCRATCH/511016/C13528-P96

>  <fragmenstein_runtime>  (858) 
20.275672912597656

>  <fragmenstein_outcome>  (858) 
too moved

>  <fragmenstein_mode>  (858) 
expansion

>  <fragmenstein_error>  (858) 


$$$$
C13528-P122
     RDKit          3D

 39 40  0  0  0  0  0  0  0  0999 V2000
    3.2460  -13.8341   21.4411 C   0  0  0  0  0  0  0  0  0  0  0  0
    2.4406  -14.7742   20.2272 C   0  0  0  0  0  0  0  0  0  0  0  0
    0.8491  -16.2079   20.8972 C   0  0  0  0  0  0  0  0  0  0  0  0
   -0.0887  -17.9778   21.5652 N   0  0  0  0  0  0  0  0  0  0  0  0
   -0.0201  -19.0276   23.2864 C   0  0  0  0  0  0  0  0  0  0  0  0
    0.7010  -18.8750   24.3488 O   0  0  0  0  0  0  0  0  0  0  0  0
   -1.2357  -20.3845   23.5658 C   0  0  0  0  0  0  0  0  0  0  0  0
   -1.8935  -20.4662   24.9489 C   0  0  0  0  0  0  0  0  0  0  0  0
   -1.5186  -20.1239   26.2303 C   0  0  0  0  0  0  0  0  0  0  0  0
   -2.5850  -20.5332   27.0561 C   0  0  0  0  0  0  0  0  0  0  0  0
   -3.5740  -21.0967   26.3630 N   0  0  0  0  0  0  0  0  0  0  0  0
   -3.1176  -21.0933   25.1026 N   0  0  0  0  0  0  0  0  0  0  0  0
    3.7877  -13.5625   19.0981 N   0  0  0  0  0  0  0  0  0  0  0  0
    5.3931  -12.5882   19.6009 C   0  0  0  0  0  0  0  0  0  0  0  0
    5.7812  -12.7439   20.7088 O   0  0  0  0  0  0  0  0  0  0  0  0
    6.5490  -11.1147   18.6918 C   0  0  0  0  0  0  0  0  0  0  0  0
    8.3395  -10.6576   17.7739 N   0  0  0  0  0  0  0  0  0  0  0  0
   10.1777  -10.6944   17.6160 C   0  0  0  0  0  0  0  0  0  0  0  0
   11.1363   -9.6924   16.4079 C   0  0  0  0  0  0  0  0  0  0  0  0
   12.0474   -7.4342   16.1119 Cl  0  0  0  0  0  0  0  0  0  0  0  0
    9.7915  -10.1572   15.7504 C   0  0  0  0  0  0  0  0  0  0  0  0
    8.5901  -10.6506   16.2783 N   0  0  0  0  0  0  0  0  0  0  0  0
    4.1269  -13.4304   21.0589 H   0  0  0  0  0  0  0  0  0  0  0  0
    3.1713  -14.4357   22.3800 H   0  0  0  0  0  0  0  0  0  0  0  0
    3.1599  -12.7903   21.8193 H   0  0  0  0  0  0  0  0  0  0  0  0
    2.4003  -15.0029   19.1324 H   0  0  0  0  0  0  0  0  0  0  0  0
    0.2478  -16.2736   20.0058 H   0  0  0  0  0  0  0  0  0  0  0  0
    0.3211  -15.6824   21.6865 H   0  0  0  0  0  0  0  0  0  0  0  0
   -0.8393  -18.3274   20.9754 H   0  0  0  0  0  0  0  0  0  0  0  0
   -2.0399  -20.5332   22.8649 H   0  0  0  0  0  0  0  0  0  0  0  0
   -0.6037  -21.2911   23.5709 H   0  0  0  0  0  0  0  0  0  0  0  0
   -0.5916  -19.6557   26.5362 H   0  0  0  0  0  0  0  0  0  0  0  0
   -2.6727  -20.4425   28.1314 H   0  0  0  0  0  0  0  0  0  0  0  0
   -3.6911  -21.5339   24.3894 H   0  0  0  0  0  0  0  0  0  0  0  0
    3.6117  -13.4089   18.1054 H   0  0  0  0  0  0  0  0  0  0  0  0
    5.8764  -10.3266   18.5761 H   0  0  0  0  0  0  0  0  0  0  0  0
    7.1277  -10.8564   19.5865 H   0  0  0  0  0  0  0  0  0  0  0  0
   10.3799  -11.7496   17.7393 H   0  0  0  0  0  0  0  0  0  0  0  0
    9.8604  -10.3847   14.7056 H   0  0  0  0  0  0  0  0  0  0  0  0
  1  2  1  0
  2  3  1  0
  3  4  1  0
  4  5  1  0
  5  6  2  0
  5  7  1  0
  7  8  1  0
  8  9  2  0
  9 10  1  0
 10 11  2  0
 11 12  1  0
  2 13  1  0
 13 14  1  0
 14 15  2  0
 14 16  1  0
 16 17  1  0
 17 18  1  0
 18 19  2  0
 19 20  1  0
 19 21  1  0
 21 22  2  0
 12  8  1  0
 22 17  1  0
  1 23  1  0
  1 24  1  0
  1 25  1  0
  2 26  1  0
  3 27  1  0
  3 28  1  0
  4 29  1  0
  7 30  1  0
  7 31  1  0
  9 32  1  0
 10 33  1  0
 12 34  1  0
 13 35  1  0
 16 36  1  0
 16 37  1  0
 18 38  1  0
 21 39  1  0
M  END
>  <Energy>  (859) 
1648.7927295776092

>  <compound_id>  (859) 
13528

>  <target_id>  (859) 
1

>  <reference_id>  (859) 
122

>  <inspiration_ids>  (859) 
[96, 122]

>  <energy_score>  (859) 
1581.250849327637

>  <distance_score>  (859) 
9.066086904646895

>  <path>  (859) 
/opt/xchem-fragalysis-2/maxwin/BulkDock/SCRATCH/511016/C13528-P122/C13528-P122.minimised.mol

>  <scratch_subdir>  (859) 
/opt/xchem-fragalysis-2/maxwin/BulkDock/SCRATCH/511016/C13528-P122

>  <fragmenstein_runtime>  (859) 
31.251151084899902

>  <fragmenstein_outcome>  (859) 
too moved

>  <fragmenstein_mode>  (859) 
expansion

>  <fragmenstein_error>  (859) 


$$$$
C13529-P96
     RDKit          3D

 45 46  0  0  0  0  0  0  0  0999 V2000
    1.5160  -10.9172   21.7350 C   0  0  0  0  0  0  0  0  0  0  0  0
    2.6084  -11.7645   21.1591 C   0  0  0  0  0  0  0  0  0  0  0  0
    3.2712  -11.9416   23.0462 C   0  0  0  0  0  0  0  0  0  0  0  0
    2.8688  -13.8530   21.7464 C   0  0  0  0  0  0  0  0  0  0  0  0
    2.5808  -15.7329   22.9553 C   0  0  0  0  0  0  0  0  0  0  0  0
    0.9286  -16.7916   23.6408 N   0  0  0  0  0  0  0  0  0  0  0  0
   -0.1230  -16.5710   25.2130 C   0  0  0  0  0  0  0  0  0  0  0  0
    0.1738  -15.7744   26.0888 O   0  0  0  0  0  0  0  0  0  0  0  0
   -1.7296  -17.2979   25.5911 C   0  0  0  0  0  0  0  0  0  0  0  0
   -2.1283  -17.4775   27.0420 C   0  0  0  0  0  0  0  0  0  0  0  0
   -3.0347  -18.3490   27.6265 C   0  0  0  0  0  0  0  0  0  0  0  0
   -3.1089  -17.9429   28.9679 C   0  0  0  0  0  0  0  0  0  0  0  0
   -2.3236  -16.8985   29.2231 N   0  0  0  0  0  0  0  0  0  0  0  0
   -1.7456  -16.6273   28.0403 N   0  0  0  0  0  0  0  0  0  0  0  0
    3.3496  -10.2548   19.7604 N   0  0  0  0  0  0  0  0  0  0  0  0
    5.0374  -10.1275   18.5859 C   0  0  0  0  0  0  0  0  0  0  0  0
    5.6321  -11.1445   18.6546 O   0  0  0  0  0  0  0  0  0  0  0  0
    6.2854   -8.6681   17.3742 C   0  0  0  0  0  0  0  0  0  0  0  0
    7.9302   -7.2057   17.5652 N   0  0  0  0  0  0  0  0  0  0  0  0
    8.9169   -6.7074   19.1563 C   0  0  0  0  0  0  0  0  0  0  0  0
   10.1161   -6.1450   19.0500 C   0  0  0  0  0  0  0  0  0  0  0  0
   11.2626   -5.6528   20.1441 Cl  0  0  0  0  0  0  0  0  0  0  0  0
    9.7821   -5.8237   17.8187 C   0  0  0  0  0  0  0  0  0  0  0  0
    8.9894   -6.6835   17.0107 N   0  0  0  0  0  0  0  0  0  0  0  0
    1.0845  -11.3434   22.6033 H   0  0  0  0  0  0  0  0  0  0  0  0
    1.7827   -9.9899   22.0208 H   0  0  0  0  0  0  0  0  0  0  0  0
    0.7942  -10.4700   21.0706 H   0  0  0  0  0  0  0  0  0  0  0  0
    2.5681  -11.9169   23.8544 H   0  0  0  0  0  0  0  0  0  0  0  0
    3.8865  -12.8006   23.2932 H   0  0  0  0  0  0  0  0  0  0  0  0
    4.0910  -11.2794   23.4486 H   0  0  0  0  0  0  0  0  0  0  0  0
    3.9030  -13.7731   22.0285 H   0  0  0  0  0  0  0  0  0  0  0  0
    1.8655  -13.5098   21.8903 H   0  0  0  0  0  0  0  0  0  0  0  0
    3.0321  -16.5640   22.4334 H   0  0  0  0  0  0  0  0  0  0  0  0
    3.1005  -15.6702   23.9298 H   0  0  0  0  0  0  0  0  0  0  0  0
    0.5388  -17.5508   23.0815 H   0  0  0  0  0  0  0  0  0  0  0  0
   -2.3107  -18.0345   25.0334 H   0  0  0  0  0  0  0  0  0  0  0  0
   -2.3258  -16.4051   25.3200 H   0  0  0  0  0  0  0  0  0  0  0  0
   -3.5972  -19.1365   27.1462 H   0  0  0  0  0  0  0  0  0  0  0  0
   -3.7014  -18.3382   29.7770 H   0  0  0  0  0  0  0  0  0  0  0  0
   -1.0932  -15.8471   27.9727 H   0  0  0  0  0  0  0  0  0  0  0  0
    2.9192   -9.3861   19.7608 H   0  0  0  0  0  0  0  0  0  0  0  0
    6.9464   -9.5620   17.2012 H   0  0  0  0  0  0  0  0  0  0  0  0
    6.4126   -8.7106   16.2941 H   0  0  0  0  0  0  0  0  0  0  0  0
    8.6507   -7.2305   20.0697 H   0  0  0  0  0  0  0  0  0  0  0  0
   10.3478   -4.9856   17.4007 H   0  0  0  0  0  0  0  0  0  0  0  0
  1  2  1  0
  2  3  1  0
  2  4  1  0
  4  5  1  0
  5  6  1  0
  6  7  1  0
  7  8  2  0
  7  9  1  0
  9 10  1  0
 10 11  2  0
 11 12  1  0
 12 13  2  0
 13 14  1  0
  2 15  1  0
 15 16  1  0
 16 17  2  0
 16 18  1  0
 18 19  1  0
 19 20  1  0
 20 21  2  0
 21 22  1  0
 21 23  1  0
 23 24  2  0
 14 10  1  0
 24 19  1  0
  1 25  1  0
  1 26  1  0
  1 27  1  0
  3 28  1  0
  3 29  1  0
  3 30  1  0
  4 31  1  0
  4 32  1  0
  5 33  1  0
  5 34  1  0
  6 35  1  0
  9 36  1  0
  9 37  1  0
 11 38  1  0
 12 39  1  0
 14 40  1  0
 15 41  1  0
 18 42  1  0
 18 43  1  0
 20 44  1  0
 23 45  1  0
M  END
>  <Energy>  (860) 
1775.9631282669809

>  <compound_id>  (860) 
13529

>  <target_id>  (860) 
1

>  <reference_id>  (860) 
96

>  <inspiration_ids>  (860) 
[96, 122]

>  <energy_score>  (860) 
1697.7378152830217

>  <distance_score>  (860) 
8.558645482787778

>  <path>  (860) 
/opt/xchem-fragalysis-2/maxwin/BulkDock/SCRATCH/511016/C13529-P96/C13529-P96.minimised.mol

>  <scratch_subdir>  (860) 
/opt/xchem-fragalysis-2/maxwin/BulkDock/SCRATCH/511016/C13529-P96

>  <fragmenstein_runtime>  (860) 
18.646925687789917

>  <fragmenstein_outcome>  (860) 
too moved

>  <fragmenstein_mode>  (860) 
expansion

>  <fragmenstein_error>  (860) 


$$$$
C13529-P122
     RDKit          3D

 45 46  0  0  0  0  0  0  0  0999 V2000
    4.3333  -13.0621   20.5468 C   0  0  0  0  0  0  0  0  0  0  0  0
    4.3177  -13.3913   19.0663 C   0  0  0  0  0  0  0  0  0  0  0  0
    4.6753  -14.8713   18.4389 C   0  0  0  0  0  0  0  0  0  0  0  0
    2.7143  -14.2405   18.2960 C   0  0  0  0  0  0  0  0  0  0  0  0
    2.5072  -15.5722   16.9566 C   0  0  0  0  0  0  0  0  0  0  0  0
    2.1067  -17.1966   16.1784 N   0  0  0  0  0  0  0  0  0  0  0  0
    0.9546  -17.6112   15.2983 C   0  0  0  0  0  0  0  0  0  0  0  0
    0.0584  -16.9587   14.8167 O   0  0  0  0  0  0  0  0  0  0  0  0
    0.9081  -19.1574   15.1034 C   0  0  0  0  0  0  0  0  0  0  0  0
   -0.3047  -19.7556   15.9042 C   0  0  0  0  0  0  0  0  0  0  0  0
   -1.6007  -19.3062   16.1348 C   0  0  0  0  0  0  0  0  0  0  0  0
   -2.2494  -20.3097   16.8854 C   0  0  0  0  0  0  0  0  0  0  0  0
   -1.4533  -21.3570   17.0951 N   0  0  0  0  0  0  0  0  0  0  0  0
   -0.2702  -20.9652   16.5683 N   0  0  0  0  0  0  0  0  0  0  0  0
    5.6207  -12.0305   19.0551 N   0  0  0  0  0  0  0  0  0  0  0  0
    6.9560  -11.8514   19.8853 C   0  0  0  0  0  0  0  0  0  0  0  0
    7.3557  -12.5537   20.7790 O   0  0  0  0  0  0  0  0  0  0  0  0
    8.1279  -10.3260   19.1840 C   0  0  0  0  0  0  0  0  0  0  0  0
    9.7012   -9.0607   19.5735 N   0  0  0  0  0  0  0  0  0  0  0  0
   11.2204  -10.1056   19.3389 C   0  0  0  0  0  0  0  0  0  0  0  0
   12.1473  -10.1439   20.5574 C   0  0  0  0  0  0  0  0  0  0  0  0
   13.5584  -11.0222   20.8777 Cl  0  0  0  0  0  0  0  0  0  0  0  0
   11.6345   -8.8088   21.3566 C   0  0  0  0  0  0  0  0  0  0  0  0
   10.4240   -8.3212   20.8676 N   0  0  0  0  0  0  0  0  0  0  0  0
    3.4929  -13.3923   21.1332 H   0  0  0  0  0  0  0  0  0  0  0  0
    4.5626  -12.0795   20.9198 H   0  0  0  0  0  0  0  0  0  0  0  0
    5.2743  -13.4995   20.8116 H   0  0  0  0  0  0  0  0  0  0  0  0
    4.8429  -14.9791   17.4163 H   0  0  0  0  0  0  0  0  0  0  0  0
    5.0186  -15.7947   18.9794 H   0  0  0  0  0  0  0  0  0  0  0  0
    3.8840  -15.5714   18.4942 H   0  0  0  0  0  0  0  0  0  0  0  0
    2.4531  -14.7902   19.1958 H   0  0  0  0  0  0  0  0  0  0  0  0
    1.7882  -13.7449   18.1256 H   0  0  0  0  0  0  0  0  0  0  0  0
    2.2744  -16.1166   17.8471 H   0  0  0  0  0  0  0  0  0  0  0  0
    3.4569  -15.5880   16.4966 H   0  0  0  0  0  0  0  0  0  0  0  0
    2.6163  -18.0163   16.4621 H   0  0  0  0  0  0  0  0  0  0  0  0
    0.7764  -19.3724   14.0380 H   0  0  0  0  0  0  0  0  0  0  0  0
    1.8356  -19.6284   15.4423 H   0  0  0  0  0  0  0  0  0  0  0  0
   -2.0228  -18.3723   15.7882 H   0  0  0  0  0  0  0  0  0  0  0  0
   -3.2645  -20.3282   17.2585 H   0  0  0  0  0  0  0  0  0  0  0  0
    0.5220  -21.5863   16.6847 H   0  0  0  0  0  0  0  0  0  0  0  0
    5.5220  -11.2872   18.4752 H   0  0  0  0  0  0  0  0  0  0  0  0
    8.4158  -10.4232   18.1305 H   0  0  0  0  0  0  0  0  0  0  0  0
    7.3846   -9.7972   19.5842 H   0  0  0  0  0  0  0  0  0  0  0  0
   11.0921  -10.7192   18.4476 H   0  0  0  0  0  0  0  0  0  0  0  0
   12.1208   -8.3682   22.2174 H   0  0  0  0  0  0  0  0  0  0  0  0
  1  2  1  0
  2  3  1  0
  2  4  1  0
  4  5  1  0
  5  6  1  0
  6  7  1  0
  7  8  2  0
  7  9  1  0
  9 10  1  0
 10 11  2  0
 11 12  1  0
 12 13  2  0
 13 14  1  0
  2 15  1  0
 15 16  1  0
 16 17  2  0
 16 18  1  0
 18 19  1  0
 19 20  1  0
 20 21  2  0
 21 22  1  0
 21 23  1  0
 23 24  2  0
 14 10  1  0
 24 19  1  0
  1 25  1  0
  1 26  1  0
  1 27  1  0
  3 28  1  0
  3 29  1  0
  3 30  1  0
  4 31  1  0
  4 32  1  0
  5 33  1  0
  5 34  1  0
  6 35  1  0
  9 36  1  0
  9 37  1  0
 11 38  1  0
 12 39  1  0
 14 40  1  0
 15 41  1  0
 18 42  1  0
 18 43  1  0
 20 44  1  0
 23 45  1  0
M  END
>  <Energy>  (861) 
863.82228144937903

>  <compound_id>  (861) 
13529

>  <target_id>  (861) 
1

>  <reference_id>  (861) 
122

>  <inspiration_ids>  (861) 
[96, 122]

>  <energy_score>  (861) 
785.5969684654123

>  <distance_score>  (861) 
13.309140869887544

>  <path>  (861) 
/opt/xchem-fragalysis-2/maxwin/BulkDock/SCRATCH/511016/C13529-P122/C13529-P122.minimised.mol

>  <scratch_subdir>  (861) 
/opt/xchem-fragalysis-2/maxwin/BulkDock/SCRATCH/511016/C13529-P122

>  <fragmenstein_runtime>  (861) 
32.923824071884155

>  <fragmenstein_outcome>  (861) 
too moved

>  <fragmenstein_mode>  (861) 
expansion

>  <fragmenstein_error>  (861) 


$$$$
C13530-P96
     RDKit          3D

 45 46  0  0  0  0  0  0  0  0999 V2000
    2.3869  -12.5418   19.7910 C   0  0  0  0  0  0  0  0  0  0  0  0
    2.1510  -12.6480   21.6450 C   0  0  0  0  0  0  0  0  0  0  0  0
    0.8503  -11.6755   22.7775 C   0  0  0  0  0  0  0  0  0  0  0  0
   -0.9001  -12.7971   22.8628 C   0  0  0  0  0  0  0  0  0  0  0  0
   -2.5102  -13.4879   23.5970 N   0  0  0  0  0  0  0  0  0  0  0  0
   -3.0618  -13.4716   25.0657 C   0  0  0  0  0  0  0  0  0  0  0  0
   -2.5476  -13.0838   26.0958 O   0  0  0  0  0  0  0  0  0  0  0  0
   -4.5383  -13.9359   25.1644 C   0  0  0  0  0  0  0  0  0  0  0  0
   -4.8232  -15.1551   26.0225 C   0  0  0  0  0  0  0  0  0  0  0  0
   -4.0364  -16.0454   26.7307 C   0  0  0  0  0  0  0  0  0  0  0  0
   -4.9268  -17.0016   27.2608 C   0  0  0  0  0  0  0  0  0  0  0  0
   -6.1911  -16.7479   26.9271 N   0  0  0  0  0  0  0  0  0  0  0  0
   -6.1111  -15.6167   26.2055 N   0  0  0  0  0  0  0  0  0  0  0  0
    1.8025  -10.9399   22.1323 N   0  0  0  0  0  0  0  0  0  0  0  0
    1.7730  -10.2906   21.0318 C   0  0  0  0  0  0  0  0  0  0  0  0
    0.8750  -10.1185   20.3682 O   0  0  0  0  0  0  0  0  0  0  0  0
    3.4513   -9.5807   20.2064 C   0  0  0  0  0  0  0  0  0  0  0  0
    5.0600   -9.1875   21.3064 C   0  0  0  0  0  0  0  0  0  0  0  0
    4.3484  -10.2698   18.7673 N   0  0  0  0  0  0  0  0  0  0  0  0
    5.6573  -10.5504   18.3434 C   0  0  0  0  0  0  0  0  0  0  0  0
    5.8383   -9.6537   17.2545 C   0  0  0  0  0  0  0  0  0  0  0  0
    7.0589   -9.0566   15.7327 Cl  0  0  0  0  0  0  0  0  0  0  0  0
    4.6568  -10.0708   16.8797 C   0  0  0  0  0  0  0  0  0  0  0  0
    3.9632  -10.8978   17.6782 N   0  0  0  0  0  0  0  0  0  0  0  0
    2.2590  -11.5100   19.5839 H   0  0  0  0  0  0  0  0  0  0  0  0
    3.1560  -12.1282   19.1368 H   0  0  0  0  0  0  0  0  0  0  0  0
    1.7398  -13.2066   19.1663 H   0  0  0  0  0  0  0  0  0  0  0  0
    3.1252  -12.6675   22.1585 H   0  0  0  0  0  0  0  0  0  0  0  0
    2.0278  -13.6451   21.8247 H   0  0  0  0  0  0  0  0  0  0  0  0
    1.0050  -11.4811   23.8749 H   0  0  0  0  0  0  0  0  0  0  0  0
   -1.1593  -12.7948   21.8156 H   0  0  0  0  0  0  0  0  0  0  0  0
   -1.4339  -12.1096   23.5668 H   0  0  0  0  0  0  0  0  0  0  0  0
   -3.1734  -13.9610   22.9935 H   0  0  0  0  0  0  0  0  0  0  0  0
   -4.9962  -14.0043   24.1787 H   0  0  0  0  0  0  0  0  0  0  0  0
   -5.0629  -13.0901   25.6343 H   0  0  0  0  0  0  0  0  0  0  0  0
   -2.9604  -16.0134   26.8413 H   0  0  0  0  0  0  0  0  0  0  0  0
   -4.7018  -17.8675   27.8690 H   0  0  0  0  0  0  0  0  0  0  0  0
   -6.9737  -15.2193   25.8472 H   0  0  0  0  0  0  0  0  0  0  0  0
    2.7202  -10.8415   22.5226 H   0  0  0  0  0  0  0  0  0  0  0  0
    3.5822   -8.5652   20.1946 H   0  0  0  0  0  0  0  0  0  0  0  0
    5.1965   -8.1855   21.6890 H   0  0  0  0  0  0  0  0  0  0  0  0
    5.1458   -9.7884   22.2227 H   0  0  0  0  0  0  0  0  0  0  0  0
    5.9599   -9.3893   20.7419 H   0  0  0  0  0  0  0  0  0  0  0  0
    6.4197  -11.1240   18.7918 H   0  0  0  0  0  0  0  0  0  0  0  0
    4.3287   -9.3030   16.2531 H   0  0  0  0  0  0  0  0  0  0  0  0
  1  2  1  0
  2  3  1  0
  3  4  1  0
  4  5  1  0
  5  6  1  0
  6  7  2  0
  6  8  1  0
  8  9  1  0
  9 10  2  0
 10 11  1  0
 11 12  2  0
 12 13  1  0
  3 14  1  0
 14 15  1  0
 15 16  2  0
 15 17  1  0
 17 18  1  0
 17 19  1  0
 19 20  1  0
 20 21  2  0
 21 22  1  0
 21 23  1  0
 23 24  2  0
 13  9  1  0
 24 19  1  0
  1 25  1  0
  1 26  1  0
  1 27  1  0
  2 28  1  0
  2 29  1  0
  3 30  1  0
  4 31  1  0
  4 32  1  0
  5 33  1  0
  8 34  1  0
  8 35  1  0
 10 36  1  0
 11 37  1  0
 13 38  1  0
 14 39  1  0
 17 40  1  0
 18 41  1  0
 18 42  1  0
 18 43  1  0
 20 44  1  0
 23 45  1  0
M  END
>  <Energy>  (862) 
860.84189296706631

>  <compound_id>  (862) 
13530

>  <target_id>  (862) 
1

>  <reference_id>  (862) 
96

>  <inspiration_ids>  (862) 
[96, 122]

>  <energy_score>  (862) 
771.7860101815368

>  <distance_score>  (862) 
10.67875643651887

>  <path>  (862) 
/opt/xchem-fragalysis-2/maxwin/BulkDock/SCRATCH/511016/C13530-P96/C13530-P96.minimised.mol

>  <scratch_subdir>  (862) 
/opt/xchem-fragalysis-2/maxwin/BulkDock/SCRATCH/511016/C13530-P96

>  <fragmenstein_runtime>  (862) 
28.89203453063965

>  <fragmenstein_outcome>  (862) 
too moved

>  <fragmenstein_mode>  (862) 
expansion

>  <fragmenstein_error>  (862) 


$$$$
C13530-P122
     RDKit          3D

 45 46  0  0  0  0  0  0  0  0999 V2000
    5.3677  -12.5000   20.3020 C   0  0  0  0  0  0  0  0  0  0  0  0
    4.9503  -12.2642   18.8715 C   0  0  0  0  0  0  0  0  0  0  0  0
    3.5290  -12.0993   17.4014 C   0  0  0  0  0  0  0  0  0  0  0  0
    3.5558  -13.9596   18.2041 C   0  0  0  0  0  0  0  0  0  0  0  0
    2.3810  -14.8037   18.7481 N   0  0  0  0  0  0  0  0  0  0  0  0
    1.9265  -15.2627   20.3956 C   0  0  0  0  0  0  0  0  0  0  0  0
    2.5181  -14.8381   21.3196 O   0  0  0  0  0  0  0  0  0  0  0  0
    0.4039  -16.6528   20.8304 C   0  0  0  0  0  0  0  0  0  0  0  0
   -0.2079  -18.2446   21.9659 C   0  0  0  0  0  0  0  0  0  0  0  0
    0.0491  -19.3326   23.5111 C   0  0  0  0  0  0  0  0  0  0  0  0
   -0.9904  -20.2779   23.8493 C   0  0  0  0  0  0  0  0  0  0  0  0
   -1.8900  -20.3037   22.8928 N   0  0  0  0  0  0  0  0  0  0  0  0
   -1.6238  -18.9667   21.7717 N   0  0  0  0  0  0  0  0  0  0  0  0
    4.0971  -10.5679   16.5035 N   0  0  0  0  0  0  0  0  0  0  0  0
    5.0784  -10.2949   14.7351 C   0  0  0  0  0  0  0  0  0  0  0  0
    5.3337  -11.1454   13.8912 O   0  0  0  0  0  0  0  0  0  0  0  0
    6.1198   -8.3495   14.2300 C   0  0  0  0  0  0  0  0  0  0  0  0
    5.8476   -7.5126   13.1079 C   0  0  0  0  0  0  0  0  0  0  0  0
    7.9355   -7.3492   14.5007 N   0  0  0  0  0  0  0  0  0  0  0  0
    8.5624   -5.6294   14.5220 C   0  0  0  0  0  0  0  0  0  0  0  0
   10.2511   -5.0035   14.5246 C   0  0  0  0  0  0  0  0  0  0  0  0
   10.9519   -3.4896   14.9755 Cl  0  0  0  0  0  0  0  0  0  0  0  0
   10.7492   -6.6018   15.2005 C   0  0  0  0  0  0  0  0  0  0  0  0
    9.5272   -7.6875   15.1350 N   0  0  0  0  0  0  0  0  0  0  0  0
    4.5506  -12.8599   20.9284 H   0  0  0  0  0  0  0  0  0  0  0  0
    5.7499  -11.5898   20.7529 H   0  0  0  0  0  0  0  0  0  0  0  0
    6.1681  -13.1831   20.3589 H   0  0  0  0  0  0  0  0  0  0  0  0
    4.0627  -12.4566   19.4073 H   0  0  0  0  0  0  0  0  0  0  0  0
    5.6844  -11.4581   18.7557 H   0  0  0  0  0  0  0  0  0  0  0  0
    4.1792  -12.2750   16.5746 H   0  0  0  0  0  0  0  0  0  0  0  0
    3.8948  -14.7540   17.5297 H   0  0  0  0  0  0  0  0  0  0  0  0
    4.4431  -14.1407   18.7687 H   0  0  0  0  0  0  0  0  0  0  0  0
    1.8557  -15.2943   18.1442 H   0  0  0  0  0  0  0  0  0  0  0  0
   -0.3890  -16.6278   20.0952 H   0  0  0  0  0  0  0  0  0  0  0  0
   -0.0506  -16.0480   21.6041 H   0  0  0  0  0  0  0  0  0  0  0  0
    0.8355  -19.3111   24.2909 H   0  0  0  0  0  0  0  0  0  0  0  0
   -1.0393  -20.9637   24.6849 H   0  0  0  0  0  0  0  0  0  0  0  0
   -2.2245  -18.9009   20.9515 H   0  0  0  0  0  0  0  0  0  0  0  0
    4.0852   -9.7609   17.0369 H   0  0  0  0  0  0  0  0  0  0  0  0
    6.8250   -8.9665   13.7600 H   0  0  0  0  0  0  0  0  0  0  0  0
    5.8199   -6.6291   12.4618 H   0  0  0  0  0  0  0  0  0  0  0  0
    4.7580   -7.7429   13.1403 H   0  0  0  0  0  0  0  0  0  0  0  0
    6.7242   -7.7223   12.4420 H   0  0  0  0  0  0  0  0  0  0  0  0
    7.9041   -5.5725   15.4798 H   0  0  0  0  0  0  0  0  0  0  0  0
   11.6069   -6.6830   15.8904 H   0  0  0  0  0  0  0  0  0  0  0  0
  1  2  1  0
  2  3  1  0
  3  4  1  0
  4  5  1  0
  5  6  1  0
  6  7  2  0
  6  8  1  0
  8  9  1  0
  9 10  2  0
 10 11  1  0
 11 12  2  0
 12 13  1  0
  3 14  1  0
 14 15  1  0
 15 16  2  0
 15 17  1  0
 17 18  1  0
 17 19  1  0
 19 20  1  0
 20 21  2  0
 21 22  1  0
 21 23  1  0
 23 24  2  0
 13  9  1  0
 24 19  1  0
  1 25  1  0
  1 26  1  0
  1 27  1  0
  2 28  1  0
  2 29  1  0
  3 30  1  0
  4 31  1  0
  4 32  1  0
  5 33  1  0
  8 34  1  0
  8 35  1  0
 10 36  1  0
 11 37  1  0
 13 38  1  0
 14 39  1  0
 17 40  1  0
 18 41  1  0
 18 42  1  0
 18 43  1  0
 20 44  1  0
 23 45  1  0
M  END
>  <Energy>  (863) 
1720.2209405254976

>  <compound_id>  (863) 
13530

>  <target_id>  (863) 
1

>  <reference_id>  (863) 
122

>  <inspiration_ids>  (863) 
[96, 122]

>  <energy_score>  (863) 
1631.1650577399969

>  <distance_score>  (863) 
9.920549016818864

>  <path>  (863) 
/opt/xchem-fragalysis-2/maxwin/BulkDock/SCRATCH/511016/C13530-P122/C13530-P122.minimised.mol

>  <scratch_subdir>  (863) 
/opt/xchem-fragalysis-2/maxwin/BulkDock/SCRATCH/511016/C13530-P122

>  <fragmenstein_runtime>  (863) 
31.232712507247925

>  <fragmenstein_outcome>  (863) 
too moved

>  <fragmenstein_mode>  (863) 
expansion

>  <fragmenstein_error>  (863) 


$$$$
C13531-P96
     RDKit          3D

 39 40  0  0  0  0  0  0  0  0999 V2000
    0.4452  -13.5599   16.0717 C   0  0  0  0  0  0  0  0  0  0  0  0
    1.1378  -14.5243   17.0265 C   0  0  0  0  0  0  0  0  0  0  0  0
    0.3171  -15.0230   18.7880 C   0  0  0  0  0  0  0  0  0  0  0  0
   -0.4195  -16.7230   19.8615 C   0  0  0  0  0  0  0  0  0  0  0  0
   -0.6863  -17.7616   21.6037 N   0  0  0  0  0  0  0  0  0  0  0  0
   -1.6806  -19.3590   22.0025 C   0  0  0  0  0  0  0  0  0  0  0  0
   -2.4157  -19.9619   21.1850 O   0  0  0  0  0  0  0  0  0  0  0  0
   -1.7476  -20.0424   23.3004 C   0  0  0  0  0  0  0  0  0  0  0  0
   -2.7725  -19.8656   24.2515 N   0  0  0  0  0  0  0  0  0  0  0  0
   -3.0413  -20.9274   25.0393 N   0  0  0  0  0  0  0  0  0  0  0  0
   -2.2873  -21.8900   24.5197 C   0  0  0  0  0  0  0  0  0  0  0  0
   -1.4595  -21.4079   23.4825 C   0  0  0  0  0  0  0  0  0  0  0  0
   -0.3736  -22.3859   22.6132 Cl  0  0  0  0  0  0  0  0  0  0  0  0
    1.5543  -13.4306   18.6883 N   0  0  0  0  0  0  0  0  0  0  0  0
    2.7284  -12.8210   17.2844 C   0  0  0  0  0  0  0  0  0  0  0  0
    2.9500  -13.3516   16.2043 O   0  0  0  0  0  0  0  0  0  0  0  0
    3.8189  -11.3701   17.5021 C   0  0  0  0  0  0  0  0  0  0  0  0
    4.3900  -10.2125   16.1272 C   0  0  0  0  0  0  0  0  0  0  0  0
    3.7264   -9.8164   14.8911 C   0  0  0  0  0  0  0  0  0  0  0  0
    3.9972   -8.4648   14.7178 C   0  0  0  0  0  0  0  0  0  0  0  0
    4.9200   -8.0524   15.5912 N   0  0  0  0  0  0  0  0  0  0  0  0
    5.2894   -9.1743   16.2189 N   0  0  0  0  0  0  0  0  0  0  0  0
    1.0622  -12.7860   16.2922 H   0  0  0  0  0  0  0  0  0  0  0  0
   -0.5473  -13.1420   16.2183 H   0  0  0  0  0  0  0  0  0  0  0  0
    0.4471  -13.8895   15.0656 H   0  0  0  0  0  0  0  0  0  0  0  0
    2.2021  -14.5524   17.1280 H   0  0  0  0  0  0  0  0  0  0  0  0
    1.5886  -15.4078   16.4795 H   0  0  0  0  0  0  0  0  0  0  0  0
   -0.7100  -14.9529   18.4672 H   0  0  0  0  0  0  0  0  0  0  0  0
   -0.9650  -15.9377   20.3072 H   0  0  0  0  0  0  0  0  0  0  0  0
   -1.1904  -17.1411   19.1994 H   0  0  0  0  0  0  0  0  0  0  0  0
   -0.1043  -17.5205   22.3970 H   0  0  0  0  0  0  0  0  0  0  0  0
   -3.2518  -19.0049   24.4914 H   0  0  0  0  0  0  0  0  0  0  0  0
   -2.3584  -22.8942   24.9159 H   0  0  0  0  0  0  0  0  0  0  0  0
    1.6411  -12.8287   19.4956 H   0  0  0  0  0  0  0  0  0  0  0  0
    3.6767  -10.8575   18.4473 H   0  0  0  0  0  0  0  0  0  0  0  0
    4.7666  -11.8616   17.6894 H   0  0  0  0  0  0  0  0  0  0  0  0
    2.9006  -10.3543   14.4387 H   0  0  0  0  0  0  0  0  0  0  0  0
    3.5384   -7.7642   14.0325 H   0  0  0  0  0  0  0  0  0  0  0  0
    6.0852   -9.1034   16.8351 H   0  0  0  0  0  0  0  0  0  0  0  0
  1  2  1  0
  2  3  1  0
  3  4  1  0
  4  5  1  0
  5  6  1  0
  6  7  2  0
  6  8  1  0
  8  9  1  0
  9 10  1  0
 10 11  2  0
 11 12  1  0
 12 13  1  0
  3 14  1  0
 14 15  1  0
 15 16  2  0
 15 17  1  0
 17 18  1  0
 18 19  2  0
 19 20  1  0
 20 21  2  0
 21 22  1  0
 12  8  2  0
 22 18  1  0
  1 23  1  0
  1 24  1  0
  1 25  1  0
  2 26  1  0
  2 27  1  0
  3 28  1  0
  4 29  1  0
  4 30  1  0
  5 31  1  0
  9 32  1  0
 11 33  1  0
 14 34  1  0
 17 35  1  0
 17 36  1  0
 19 37  1  0
 20 38  1  0
 22 39  1  0
M  END
>  <Energy>  (864) 
893.14889898984677

>  <compound_id>  (864) 
13531

>  <target_id>  (864) 
1

>  <reference_id>  (864) 
96

>  <inspiration_ids>  (864) 
[96, 122]

>  <energy_score>  (864) 
868.2837081750024

>  <distance_score>  (864) 
10.713549792112318

>  <path>  (864) 
/opt/xchem-fragalysis-2/maxwin/BulkDock/SCRATCH/511016/C13531-P96/C13531-P96.minimised.mol

>  <scratch_subdir>  (864) 
/opt/xchem-fragalysis-2/maxwin/BulkDock/SCRATCH/511016/C13531-P96

>  <fragmenstein_runtime>  (864) 
19.110880851745605

>  <fragmenstein_outcome>  (864) 
too moved

>  <fragmenstein_mode>  (864) 
expansion

>  <fragmenstein_error>  (864) 


$$$$
C13531-P122
     RDKit          3D

 39 40  0  0  0  0  0  0  0  0999 V2000
   -6.6116  -17.6710   20.8517 C   0  0  0  0  0  0  0  0  0  0  0  0
   -6.3383  -17.6554   22.3935 C   0  0  0  0  0  0  0  0  0  0  0  0
   -5.2909  -16.2192   23.6002 C   0  0  0  0  0  0  0  0  0  0  0  0
   -6.2493  -18.2588   24.5794 C   0  0  0  0  0  0  0  0  0  0  0  0
   -7.0969  -19.3108   26.4175 N   0  0  0  0  0  0  0  0  0  0  0  0
   -7.6266  -21.3758   26.9481 C   0  0  0  0  0  0  0  0  0  0  0  0
   -7.2819  -22.3617   26.1311 O   0  0  0  0  0  0  0  0  0  0  0  0
   -8.7340  -22.1817   28.2127 C   0  0  0  0  0  0  0  0  0  0  0  0
  -10.2400  -21.6047   28.4923 N   0  0  0  0  0  0  0  0  0  0  0  0
  -11.0827  -22.2916   29.2949 N   0  0  0  0  0  0  0  0  0  0  0  0
  -10.8383  -23.5197   28.8901 C   0  0  0  0  0  0  0  0  0  0  0  0
   -9.7009  -23.4968   27.9890 C   0  0  0  0  0  0  0  0  0  0  0  0
  -10.3005  -24.4240   26.6664 Cl  0  0  0  0  0  0  0  0  0  0  0  0
   -3.3291  -15.2777   22.7868 N   0  0  0  0  0  0  0  0  0  0  0  0
   -2.7439  -13.7879   21.1731 C   0  0  0  0  0  0  0  0  0  0  0  0
   -3.8477  -13.0891   20.4541 O   0  0  0  0  0  0  0  0  0  0  0  0
   -1.5383  -13.1898   20.7138 C   0  0  0  0  0  0  0  0  0  0  0  0
   -1.9211  -11.4117   20.1927 C   0  0  0  0  0  0  0  0  0  0  0  0
   -2.4473  -10.8752   19.0253 C   0  0  0  0  0  0  0  0  0  0  0  0
   -2.3710   -9.4748   19.1898 C   0  0  0  0  0  0  0  0  0  0  0  0
   -1.8563   -9.1105   20.3612 N   0  0  0  0  0  0  0  0  0  0  0  0
   -1.5139  -10.2804   20.9132 N   0  0  0  0  0  0  0  0  0  0  0  0
   -7.0513  -18.6447   20.5960 H   0  0  0  0  0  0  0  0  0  0  0  0
   -5.7151  -17.5828   20.2458 H   0  0  0  0  0  0  0  0  0  0  0  0
   -7.3751  -16.9472   20.5699 H   0  0  0  0  0  0  0  0  0  0  0  0
   -5.9107  -18.6694   22.4544 H   0  0  0  0  0  0  0  0  0  0  0  0
   -7.3887  -17.5763   22.7533 H   0  0  0  0  0  0  0  0  0  0  0  0
   -4.6019  -16.5200   22.4339 H   0  0  0  0  0  0  0  0  0  0  0  0
   -6.7965  -18.8812   23.8680 H   0  0  0  0  0  0  0  0  0  0  0  0
   -7.1405  -17.5483   24.7002 H   0  0  0  0  0  0  0  0  0  0  0  0
   -7.3586  -18.6853   27.1932 H   0  0  0  0  0  0  0  0  0  0  0  0
  -10.3920  -20.6222   28.4735 H   0  0  0  0  0  0  0  0  0  0  0  0
  -11.5637  -24.2993   29.0860 H   0  0  0  0  0  0  0  0  0  0  0  0
   -2.5053  -15.5869   23.2296 H   0  0  0  0  0  0  0  0  0  0  0  0
   -1.3268  -12.3196   21.3439 H   0  0  0  0  0  0  0  0  0  0  0  0
   -1.9081  -13.0696   19.6705 H   0  0  0  0  0  0  0  0  0  0  0  0
   -2.8465  -11.4297   18.1918 H   0  0  0  0  0  0  0  0  0  0  0  0
   -2.7256   -8.7042   18.5256 H   0  0  0  0  0  0  0  0  0  0  0  0
   -0.9229  -10.2513   21.7343 H   0  0  0  0  0  0  0  0  0  0  0  0
  1  2  1  0
  2  3  1  0
  3  4  1  0
  4  5  1  0
  5  6  1  0
  6  7  2  0
  6  8  1  0
  8  9  1  0
  9 10  1  0
 10 11  2  0
 11 12  1  0
 12 13  1  0
  3 14  1  0
 14 15  1  0
 15 16  2  0
 15 17  1  0
 17 18  1  0
 18 19  2  0
 19 20  1  0
 20 21  2  0
 21 22  1  0
 12  8  2  0
 22 18  1  0
  1 23  1  0
  1 24  1  0
  1 25  1  0
  2 26  1  0
  2 27  1  0
  3 28  1  0
  4 29  1  0
  4 30  1  0
  5 31  1  0
  9 32  1  0
 11 33  1  0
 14 34  1  0
 17 35  1  0
 17 36  1  0
 19 37  1  0
 20 38  1  0
 22 39  1  0
M  END
>  <Energy>  (865) 
2254.3428449246276

>  <compound_id>  (865) 
13531

>  <target_id>  (865) 
1

>  <reference_id>  (865) 
122

>  <inspiration_ids>  (865) 
[96, 122]

>  <energy_score>  (865) 
2229.477654109816

>  <distance_score>  (865) 
12.021954203660474

>  <path>  (865) 
/opt/xchem-fragalysis-2/maxwin/BulkDock/SCRATCH/511016/C13531-P122/C13531-P122.minimised.mol

>  <scratch_subdir>  (865) 
/opt/xchem-fragalysis-2/maxwin/BulkDock/SCRATCH/511016/C13531-P122

>  <fragmenstein_runtime>  (865) 
37.630003452301025

>  <fragmenstein_outcome>  (865) 
too moved

>  <fragmenstein_mode>  (865) 
expansion

>  <fragmenstein_error>  (865) 


$$$$
C13532-P96
     RDKit          3D

 39 40  0  0  0  0  0  0  0  0999 V2000
   -0.4480   -6.7605   20.4766 C   0  0  0  0  0  0  0  0  0  0  0  0
    1.4341   -7.0934   20.3489 C   0  0  0  0  0  0  0  0  0  0  0  0
    3.1697   -7.9035   20.8326 N   0  0  0  0  0  0  0  0  0  0  0  0
    1.9884   -9.6317   21.0458 C   0  0  0  0  0  0  0  0  0  0  0  0
    1.3798  -11.0136   22.2464 C   0  0  0  0  0  0  0  0  0  0  0  0
    0.1776  -12.4709   22.2215 N   0  0  0  0  0  0  0  0  0  0  0  0
   -1.4498  -12.7933   23.1726 C   0  0  0  0  0  0  0  0  0  0  0  0
   -1.8830  -11.9208   23.8601 O   0  0  0  0  0  0  0  0  0  0  0  0
   -2.5572  -14.3708   23.4256 C   0  0  0  0  0  0  0  0  0  0  0  0
   -2.5141  -15.4209   25.1659 C   0  0  0  0  0  0  0  0  0  0  0  0
   -2.3397  -16.7606   25.6451 C   0  0  0  0  0  0  0  0  0  0  0  0
   -2.4266  -16.7793   27.0529 C   0  0  0  0  0  0  0  0  0  0  0  0
   -2.5076  -15.5561   27.5377 N   0  0  0  0  0  0  0  0  0  0  0  0
   -2.4533  -14.7704   26.4517 N   0  0  0  0  0  0  0  0  0  0  0  0
    4.0886   -6.7416   22.1682 C   0  0  0  0  0  0  0  0  0  0  0  0
    4.0420   -6.7811   23.4228 O   0  0  0  0  0  0  0  0  0  0  0  0
    4.9454   -5.5420   21.7448 C   0  0  0  0  0  0  0  0  0  0  0  0
    4.9339   -4.7000   20.7065 N   0  0  0  0  0  0  0  0  0  0  0  0
    5.7666   -3.6415   20.7739 N   0  0  0  0  0  0  0  0  0  0  0  0
    6.4024   -3.8356   21.9233 C   0  0  0  0  0  0  0  0  0  0  0  0
    5.9857   -5.0231   22.5312 C   0  0  0  0  0  0  0  0  0  0  0  0
    6.6729   -5.6035   23.9771 Cl  0  0  0  0  0  0  0  0  0  0  0  0
   -0.7583   -6.0727   19.6810 H   0  0  0  0  0  0  0  0  0  0  0  0
   -0.7595   -6.3386   21.4262 H   0  0  0  0  0  0  0  0  0  0  0  0
   -1.0686   -7.6262   20.1856 H   0  0  0  0  0  0  0  0  0  0  0  0
    1.6504   -6.1631   20.8583 H   0  0  0  0  0  0  0  0  0  0  0  0
    1.0621   -7.5169   19.4368 H   0  0  0  0  0  0  0  0  0  0  0  0
    0.9832  -10.0219   20.7630 H   0  0  0  0  0  0  0  0  0  0  0  0
    2.6515  -10.2508   20.4159 H   0  0  0  0  0  0  0  0  0  0  0  0
    0.9702  -10.5443   23.1152 H   0  0  0  0  0  0  0  0  0  0  0  0
    2.3056  -11.5812   22.3336 H   0  0  0  0  0  0  0  0  0  0  0  0
    0.4473  -13.2727   21.7790 H   0  0  0  0  0  0  0  0  0  0  0  0
   -3.1351  -13.7083   24.0552 H   0  0  0  0  0  0  0  0  0  0  0  0
   -3.4798  -14.4011   22.8383 H   0  0  0  0  0  0  0  0  0  0  0  0
   -2.4779  -17.6728   25.1015 H   0  0  0  0  0  0  0  0  0  0  0  0
   -2.4666  -17.6289   27.7227 H   0  0  0  0  0  0  0  0  0  0  0  0
   -2.3664  -13.7708   26.6127 H   0  0  0  0  0  0  0  0  0  0  0  0
    4.4034   -4.8957   19.8824 H   0  0  0  0  0  0  0  0  0  0  0  0
    7.1483   -3.1249   22.2540 H   0  0  0  0  0  0  0  0  0  0  0  0
  1  2  1  0
  2  3  1  0
  3  4  1  0
  4  5  1  0
  5  6  1  0
  6  7  1  0
  7  8  2  0
  7  9  1  0
  9 10  1  0
 10 11  2  0
 11 12  1  0
 12 13  2  0
 13 14  1  0
  3 15  1  0
 15 16  2  0
 15 17  1  0
 17 18  1  0
 18 19  1  0
 19 20  2  0
 20 21  1  0
 21 22  1  0
 14 10  1  0
 21 17  2  0
  1 23  1  0
  1 24  1  0
  1 25  1  0
  2 26  1  0
  2 27  1  0
  4 28  1  0
  4 29  1  0
  5 30  1  0
  5 31  1  0
  6 32  1  0
  9 33  1  0
  9 34  1  0
 11 35  1  0
 12 36  1  0
 14 37  1  0
 18 38  1  0
 20 39  1  0
M  END
>  <Energy>  (866) 
908.28804368594535

>  <compound_id>  (866) 
13532

>  <target_id>  (866) 
1

>  <reference_id>  (866) 
96

>  <inspiration_ids>  (866) 
[96, 122]

>  <energy_score>  (866) 
875.3518876189407

>  <distance_score>  (866) 
10.98275220898955

>  <path>  (866) 
/opt/xchem-fragalysis-2/maxwin/BulkDock/SCRATCH/511016/C13532-P96/C13532-P96.minimised.mol

>  <scratch_subdir>  (866) 
/opt/xchem-fragalysis-2/maxwin/BulkDock/SCRATCH/511016/C13532-P96

>  <fragmenstein_runtime>  (866) 
20.847379684448242

>  <fragmenstein_outcome>  (866) 
too moved

>  <fragmenstein_mode>  (866) 
expansion

>  <fragmenstein_error>  (866) 


$$$$
C13532-P122
     RDKit          3D

 39 40  0  0  0  0  0  0  0  0999 V2000
   -1.8372   -9.1278   18.8082 C   0  0  0  0  0  0  0  0  0  0  0  0
   -2.4570   -9.4982   20.1355 C   0  0  0  0  0  0  0  0  0  0  0  0
   -1.7933  -10.1627   21.2544 N   0  0  0  0  0  0  0  0  0  0  0  0
   -2.0756  -11.6024   20.2173 C   0  0  0  0  0  0  0  0  0  0  0  0
   -1.8196  -12.3549   18.6055 C   0  0  0  0  0  0  0  0  0  0  0  0
   -1.8981  -14.1023   18.2127 N   0  0  0  0  0  0  0  0  0  0  0  0
   -2.0553  -15.4572   19.2284 C   0  0  0  0  0  0  0  0  0  0  0  0
   -2.0501  -15.4716   20.4155 O   0  0  0  0  0  0  0  0  0  0  0  0
   -2.4042  -16.9935   18.6356 C   0  0  0  0  0  0  0  0  0  0  0  0
   -3.3613  -18.1380   19.1472 C   0  0  0  0  0  0  0  0  0  0  0  0
   -4.7386  -18.3435   19.1705 C   0  0  0  0  0  0  0  0  0  0  0  0
   -4.9540  -19.7181   19.4091 C   0  0  0  0  0  0  0  0  0  0  0  0
   -3.8060  -20.3871   19.4536 N   0  0  0  0  0  0  0  0  0  0  0  0
   -2.8719  -19.4305   19.2790 N   0  0  0  0  0  0  0  0  0  0  0  0
   -0.4844   -9.4146   21.6270 C   0  0  0  0  0  0  0  0  0  0  0  0
    0.6138   -9.6168   21.2005 O   0  0  0  0  0  0  0  0  0  0  0  0
   -0.4294   -8.1963   22.7426 C   0  0  0  0  0  0  0  0  0  0  0  0
    0.5657   -7.3380   22.3140 N   0  0  0  0  0  0  0  0  0  0  0  0
    0.7404   -6.0972   22.9474 N   0  0  0  0  0  0  0  0  0  0  0  0
    0.0598   -6.2518   24.0639 C   0  0  0  0  0  0  0  0  0  0  0  0
   -0.5979   -7.5230   24.0768 C   0  0  0  0  0  0  0  0  0  0  0  0
   -1.2118   -7.6792   25.7199 Cl  0  0  0  0  0  0  0  0  0  0  0  0
   -1.7685   -9.9672   18.1315 H   0  0  0  0  0  0  0  0  0  0  0  0
   -2.5020   -8.4491   18.2798 H   0  0  0  0  0  0  0  0  0  0  0  0
   -0.8689   -8.6405   18.9086 H   0  0  0  0  0  0  0  0  0  0  0  0
   -2.7397   -8.5447   20.5898 H   0  0  0  0  0  0  0  0  0  0  0  0
   -3.3784   -9.9966   19.8920 H   0  0  0  0  0  0  0  0  0  0  0  0
   -1.5958  -12.3266   20.8180 H   0  0  0  0  0  0  0  0  0  0  0  0
   -3.1446  -11.7918   20.3701 H   0  0  0  0  0  0  0  0  0  0  0  0
   -0.9497  -12.0431   18.1165 H   0  0  0  0  0  0  0  0  0  0  0  0
   -2.6634  -11.9759   18.0284 H   0  0  0  0  0  0  0  0  0  0  0  0
   -2.0232  -14.3890   17.2407 H   0  0  0  0  0  0  0  0  0  0  0  0
   -1.5571  -17.6304   18.4327 H   0  0  0  0  0  0  0  0  0  0  0  0
   -3.1018  -16.7461   17.8404 H   0  0  0  0  0  0  0  0  0  0  0  0
   -5.5211  -17.6311   19.0099 H   0  0  0  0  0  0  0  0  0  0  0  0
   -5.8899  -20.2509   19.5186 H   0  0  0  0  0  0  0  0  0  0  0  0
   -1.8996  -19.7204   19.2695 H   0  0  0  0  0  0  0  0  0  0  0  0
    1.0348   -7.4921   21.4366 H   0  0  0  0  0  0  0  0  0  0  0  0
    0.0133   -5.4498   24.7916 H   0  0  0  0  0  0  0  0  0  0  0  0
  1  2  1  0
  2  3  1  0
  3  4  1  0
  4  5  1  0
  5  6  1  0
  6  7  1  0
  7  8  2  0
  7  9  1  0
  9 10  1  0
 10 11  2  0
 11 12  1  0
 12 13  2  0
 13 14  1  0
  3 15  1  0
 15 16  2  0
 15 17  1  0
 17 18  1  0
 18 19  1  0
 19 20  2  0
 20 21  1  0
 21 22  1  0
 14 10  1  0
 21 17  2  0
  1 23  1  0
  1 24  1  0
  1 25  1  0
  2 26  1  0
  2 27  1  0
  4 28  1  0
  4 29  1  0
  5 30  1  0
  5 31  1  0
  6 32  1  0
  9 33  1  0
  9 34  1  0
 11 35  1  0
 12 36  1  0
 14 37  1  0
 18 38  1  0
 20 39  1  0
M  END
>  <Energy>  (867) 
343.09612302494588

>  <compound_id>  (867) 
13532

>  <target_id>  (867) 
1

>  <reference_id>  (867) 
122

>  <inspiration_ids>  (867) 
[96, 122]

>  <energy_score>  (867) 
310.1599669579425

>  <distance_score>  (867) 
14.14554165100729

>  <path>  (867) 
/opt/xchem-fragalysis-2/maxwin/BulkDock/SCRATCH/511016/C13532-P122/C13532-P122.minimised.mol

>  <scratch_subdir>  (867) 
/opt/xchem-fragalysis-2/maxwin/BulkDock/SCRATCH/511016/C13532-P122

>  <fragmenstein_runtime>  (867) 
33.86930704116821

>  <fragmenstein_outcome>  (867) 
too moved

>  <fragmenstein_mode>  (867) 
expansion

>  <fragmenstein_error>  (867) 


$$$$
C13533-P96
     RDKit          3D

 39 40  0  0  0  0  0  0  0  0999 V2000
    2.3483  -10.6081   21.0304 C   0  0  0  0  0  0  0  0  0  0  0  0
    2.2661  -12.0097   21.1174 C   0  0  0  0  0  0  0  0  0  0  0  0
    0.8197  -11.6659   22.3708 C   0  0  0  0  0  0  0  0  0  0  0  0
   -0.6296  -12.9508   22.8219 N   0  0  0  0  0  0  0  0  0  0  0  0
   -0.8987  -12.8676   21.3915 C   0  0  0  0  0  0  0  0  0  0  0  0
   -2.0689  -12.7496   23.6664 C   0  0  0  0  0  0  0  0  0  0  0  0
   -2.5833  -11.7552   24.1008 O   0  0  0  0  0  0  0  0  0  0  0  0
   -2.9661  -14.3790   23.7705 C   0  0  0  0  0  0  0  0  0  0  0  0
   -2.4695  -15.7768   24.8715 C   0  0  0  0  0  0  0  0  0  0  0  0
   -2.2546  -17.1930   25.2023 C   0  0  0  0  0  0  0  0  0  0  0  0
   -1.7982  -17.3358   26.4764 C   0  0  0  0  0  0  0  0  0  0  0  0
   -1.1222  -16.2231   26.4607 N   0  0  0  0  0  0  0  0  0  0  0  0
   -2.1414  -15.4067   26.1086 N   0  0  0  0  0  0  0  0  0  0  0  0
    2.6948  -11.9790   19.2295 N   0  0  0  0  0  0  0  0  0  0  0  0
    3.9775  -11.1263   18.3365 C   0  0  0  0  0  0  0  0  0  0  0  0
    4.7527  -10.3329   18.8040 O   0  0  0  0  0  0  0  0  0  0  0  0
    4.2678  -11.2931   16.7365 C   0  0  0  0  0  0  0  0  0  0  0  0
    4.6630   -9.8655   16.2656 N   0  0  0  0  0  0  0  0  0  0  0  0
    5.9553   -9.4904   16.4215 N   0  0  0  0  0  0  0  0  0  0  0  0
    6.4595  -10.6500   16.0366 C   0  0  0  0  0  0  0  0  0  0  0  0
    5.2603  -11.3213   15.6776 C   0  0  0  0  0  0  0  0  0  0  0  0
    5.0174  -11.5386   13.9384 Cl  0  0  0  0  0  0  0  0  0  0  0  0
    2.9330  -10.0586   20.3090 H   0  0  0  0  0  0  0  0  0  0  0  0
    2.6854  -10.6665   22.0254 H   0  0  0  0  0  0  0  0  0  0  0  0
    1.4065  -10.1677   20.9407 H   0  0  0  0  0  0  0  0  0  0  0  0
    2.8384  -12.7899   21.6429 H   0  0  0  0  0  0  0  0  0  0  0  0
    0.7714  -10.5559   22.3191 H   0  0  0  0  0  0  0  0  0  0  0  0
    1.1226  -11.4203   23.4253 H   0  0  0  0  0  0  0  0  0  0  0  0
   -1.7355  -13.4578   21.7738 H   0  0  0  0  0  0  0  0  0  0  0  0
   -0.1600  -13.4293   20.8012 H   0  0  0  0  0  0  0  0  0  0  0  0
   -1.4526  -13.5880   20.7692 H   0  0  0  0  0  0  0  0  0  0  0  0
   -3.2429  -14.4841   22.7522 H   0  0  0  0  0  0  0  0  0  0  0  0
   -3.9767  -14.3098   24.0081 H   0  0  0  0  0  0  0  0  0  0  0  0
   -2.6291  -18.1273   24.7936 H   0  0  0  0  0  0  0  0  0  0  0  0
   -1.6851  -18.1519   27.1706 H   0  0  0  0  0  0  0  0  0  0  0  0
   -2.2229  -14.4657   26.4708 H   0  0  0  0  0  0  0  0  0  0  0  0
    2.2519  -12.6449   18.6226 H   0  0  0  0  0  0  0  0  0  0  0  0
    3.9377   -9.1872   16.0641 H   0  0  0  0  0  0  0  0  0  0  0  0
    7.4742  -10.6930   15.6652 H   0  0  0  0  0  0  0  0  0  0  0  0
  1  2  1  0
  2  3  1  0
  3  4  1  0
  4  5  1  0
  4  6  1  0
  6  7  2  0
  6  8  1  0
  8  9  1  0
  9 10  2  0
 10 11  1  0
 11 12  2  0
 12 13  1  0
  2 14  1  0
 14 15  1  0
 15 16  2  0
 15 17  1  0
 17 18  1  0
 18 19  1  0
 19 20  2  0
 20 21  1  0
 21 22  1  0
 13  9  1  0
 21 17  2  0
  1 23  1  0
  1 24  1  0
  1 25  1  0
  2 26  1  0
  3 27  1  0
  3 28  1  0
  5 29  1  0
  5 30  1  0
  5 31  1  0
  8 32  1  0
  8 33  1  0
 10 34  1  0
 11 35  1  0
 13 36  1  0
 14 37  1  0
 18 38  1  0
 20 39  1  0
M  END
>  <Energy>  (868) 
776.65402034484407

>  <compound_id>  (868) 
13533

>  <target_id>  (868) 
1

>  <reference_id>  (868) 
96

>  <inspiration_ids>  (868) 
[96, 122]

>  <energy_score>  (868) 
741.6216269523557

>  <distance_score>  (868) 
11.684007528349944

>  <path>  (868) 
/opt/xchem-fragalysis-2/maxwin/BulkDock/SCRATCH/511016/C13533-P96/C13533-P96.minimised.mol

>  <scratch_subdir>  (868) 
/opt/xchem-fragalysis-2/maxwin/BulkDock/SCRATCH/511016/C13533-P96

>  <fragmenstein_runtime>  (868) 
18.134701013565063

>  <fragmenstein_outcome>  (868) 
too moved

>  <fragmenstein_mode>  (868) 
expansion

>  <fragmenstein_error>  (868) 


$$$$
C13533-P122
     RDKit          3D

 39 40  0  0  0  0  0  0  0  0999 V2000
    6.3825  -12.7400   19.6084 C   0  0  0  0  0  0  0  0  0  0  0  0
    5.0396  -11.9745   19.5078 C   0  0  0  0  0  0  0  0  0  0  0  0
    3.4674  -13.4037   20.0583 C   0  0  0  0  0  0  0  0  0  0  0  0
    2.4968  -15.2888   20.3507 N   0  0  0  0  0  0  0  0  0  0  0  0
    3.4218  -15.5928   18.7527 C   0  0  0  0  0  0  0  0  0  0  0  0
    0.6372  -16.1037   20.2186 C   0  0  0  0  0  0  0  0  0  0  0  0
   -0.4525  -15.6431   19.8076 O   0  0  0  0  0  0  0  0  0  0  0  0
    0.2963  -17.8899   21.0470 C   0  0  0  0  0  0  0  0  0  0  0  0
   -0.3818  -19.1876   22.4828 C   0  0  0  0  0  0  0  0  0  0  0  0
    0.1833  -20.0384   23.6067 C   0  0  0  0  0  0  0  0  0  0  0  0
   -0.7655  -20.9175   24.1684 C   0  0  0  0  0  0  0  0  0  0  0  0
   -1.8063  -20.9831   23.3757 N   0  0  0  0  0  0  0  0  0  0  0  0
   -1.3537  -20.3442   22.2843 N   0  0  0  0  0  0  0  0  0  0  0  0
    6.1569  -10.1791   19.3637 N   0  0  0  0  0  0  0  0  0  0  0  0
    5.7149   -8.1041   18.8755 C   0  0  0  0  0  0  0  0  0  0  0  0
    4.7417   -7.6002   18.5052 O   0  0  0  0  0  0  0  0  0  0  0  0
    7.3207   -6.6670   18.8628 C   0  0  0  0  0  0  0  0  0  0  0  0
    9.3499   -6.1041   18.9534 N   0  0  0  0  0  0  0  0  0  0  0  0
   10.1072   -4.8484   17.4144 N   0  0  0  0  0  0  0  0  0  0  0  0
    8.3866   -4.6321   16.3105 C   0  0  0  0  0  0  0  0  0  0  0  0
    7.0451   -5.8509   17.2758 C   0  0  0  0  0  0  0  0  0  0  0  0
    5.4340   -6.0326   16.9078 Cl  0  0  0  0  0  0  0  0  0  0  0  0
    6.9018  -12.5488   20.5513 H   0  0  0  0  0  0  0  0  0  0  0  0
    6.1418  -13.7695   19.5231 H   0  0  0  0  0  0  0  0  0  0  0  0
    7.0995  -12.4477   18.8376 H   0  0  0  0  0  0  0  0  0  0  0  0
    5.0737  -11.7951   20.6078 H   0  0  0  0  0  0  0  0  0  0  0  0
    3.9999  -13.6551   19.1298 H   0  0  0  0  0  0  0  0  0  0  0  0
    3.7668  -13.2817   21.0937 H   0  0  0  0  0  0  0  0  0  0  0  0
    2.6519  -15.9384   18.0776 H   0  0  0  0  0  0  0  0  0  0  0  0
    3.2156  -14.6753   18.1945 H   0  0  0  0  0  0  0  0  0  0  0  0
    4.5108  -15.7168   18.6506 H   0  0  0  0  0  0  0  0  0  0  0  0
   -0.7694  -17.8472   20.6569 H   0  0  0  0  0  0  0  0  0  0  0  0
   -0.0950  -17.1680   21.7503 H   0  0  0  0  0  0  0  0  0  0  0  0
    1.1546  -19.9854   24.0856 H   0  0  0  0  0  0  0  0  0  0  0  0
   -0.7066  -21.5250   25.0617 H   0  0  0  0  0  0  0  0  0  0  0  0
   -1.7248  -20.6445   21.3835 H   0  0  0  0  0  0  0  0  0  0  0  0
    7.1450  -10.3537   19.5896 H   0  0  0  0  0  0  0  0  0  0  0  0
    9.5903   -5.6696   19.8430 H   0  0  0  0  0  0  0  0  0  0  0  0
    8.4905   -4.0333   15.3767 H   0  0  0  0  0  0  0  0  0  0  0  0
  1  2  1  0
  2  3  1  0
  3  4  1  0
  4  5  1  0
  4  6  1  0
  6  7  2  0
  6  8  1  0
  8  9  1  0
  9 10  2  0
 10 11  1  0
 11 12  2  0
 12 13  1  0
  2 14  1  0
 14 15  1  0
 15 16  2  0
 15 17  1  0
 17 18  1  0
 18 19  1  0
 19 20  2  0
 20 21  1  0
 21 22  1  0
 13  9  1  0
 21 17  2  0
  1 23  1  0
  1 24  1  0
  1 25  1  0
  2 26  1  0
  3 27  1  0
  3 28  1  0
  5 29  1  0
  5 30  1  0
  5 31  1  0
  8 32  1  0
  8 33  1  0
 10 34  1  0
 11 35  1  0
 13 36  1  0
 14 37  1  0
 18 38  1  0
 20 39  1  0
M  END
>  <Energy>  (869) 
2381.2100321719058

>  <compound_id>  (869) 
13533

>  <target_id>  (869) 
1

>  <reference_id>  (869) 
122

>  <inspiration_ids>  (869) 
[96, 122]

>  <energy_score>  (869) 
2346.1776387794357

>  <distance_score>  (869) 
10.114648895343928

>  <path>  (869) 
/opt/xchem-fragalysis-2/maxwin/BulkDock/SCRATCH/511016/C13533-P122/C13533-P122.minimised.mol

>  <scratch_subdir>  (869) 
/opt/xchem-fragalysis-2/maxwin/BulkDock/SCRATCH/511016/C13533-P122

>  <fragmenstein_runtime>  (869) 
24.588598489761353

>  <fragmenstein_outcome>  (869) 
too moved

>  <fragmenstein_mode>  (869) 
expansion

>  <fragmenstein_error>  (869) 


$$$$
C13534-P96
     RDKit          3D

 39 40  0  0  0  0  0  0  0  0999 V2000
    1.5676  -10.6297   21.5446 C   0  0  0  0  0  0  0  0  0  0  0  0
    1.7237  -11.9182   22.1994 C   0  0  0  0  0  0  0  0  0  0  0  0
    2.5179  -12.9052   21.4866 C   0  0  0  0  0  0  0  0  0  0  0  0
   -0.2140  -12.7888   22.7548 C   0  0  0  0  0  0  0  0  0  0  0  0
   -1.6392  -14.2787   23.2128 N   0  0  0  0  0  0  0  0  0  0  0  0
   -1.5905  -15.8792   24.5777 C   0  0  0  0  0  0  0  0  0  0  0  0
   -0.6117  -15.8858   25.2708 O   0  0  0  0  0  0  0  0  0  0  0  0
   -2.4401  -17.2623   24.9138 C   0  0  0  0  0  0  0  0  0  0  0  0
   -2.1205  -17.7178   26.1768 N   0  0  0  0  0  0  0  0  0  0  0  0
   -2.7496  -18.7029   26.8677 N   0  0  0  0  0  0  0  0  0  0  0  0
   -3.3965  -19.3430   25.9201 C   0  0  0  0  0  0  0  0  0  0  0  0
   -2.9533  -18.8023   24.6960 C   0  0  0  0  0  0  0  0  0  0  0  0
   -2.7754  -20.0224   23.4448 Cl  0  0  0  0  0  0  0  0  0  0  0  0
    3.3338  -11.7108   23.3663 N   0  0  0  0  0  0  0  0  0  0  0  0
    4.7934  -10.5416   23.2377 C   0  0  0  0  0  0  0  0  0  0  0  0
    4.9992   -9.7637   22.3039 O   0  0  0  0  0  0  0  0  0  0  0  0
    5.8432  -10.3123   24.3339 C   0  0  0  0  0  0  0  0  0  0  0  0
    6.8767   -9.1032   23.9354 C   0  0  0  0  0  0  0  0  0  0  0  0
    7.9885   -8.6114   24.6014 C   0  0  0  0  0  0  0  0  0  0  0  0
    8.5785   -7.6640   23.7345 C   0  0  0  0  0  0  0  0  0  0  0  0
    7.9045   -7.5339   22.5934 N   0  0  0  0  0  0  0  0  0  0  0  0
    6.8847   -8.4047   22.7355 N   0  0  0  0  0  0  0  0  0  0  0  0
    2.3659  -10.4148   20.8523 H   0  0  0  0  0  0  0  0  0  0  0  0
    1.3255  -10.0500   22.3721 H   0  0  0  0  0  0  0  0  0  0  0  0
    0.6540  -10.4095   21.0194 H   0  0  0  0  0  0  0  0  0  0  0  0
    2.4176  -12.8795   20.4166 H   0  0  0  0  0  0  0  0  0  0  0  0
    2.0598  -13.7304   21.8452 H   0  0  0  0  0  0  0  0  0  0  0  0
    3.4981  -13.2239   21.8608 H   0  0  0  0  0  0  0  0  0  0  0  0
   -0.8366  -12.5942   21.8780 H   0  0  0  0  0  0  0  0  0  0  0  0
   -0.0673  -12.1069   23.5977 H   0  0  0  0  0  0  0  0  0  0  0  0
   -2.5265  -14.2927   22.7303 H   0  0  0  0  0  0  0  0  0  0  0  0
   -1.2228  -17.3924   26.4537 H   0  0  0  0  0  0  0  0  0  0  0  0
   -3.9202  -20.2628   26.1397 H   0  0  0  0  0  0  0  0  0  0  0  0
    3.3540  -12.1769   24.2632 H   0  0  0  0  0  0  0  0  0  0  0  0
    5.3339   -9.9494   25.2217 H   0  0  0  0  0  0  0  0  0  0  0  0
    6.6077  -11.0855   24.3547 H   0  0  0  0  0  0  0  0  0  0  0  0
    8.3497   -8.9232   25.5713 H   0  0  0  0  0  0  0  0  0  0  0  0
    9.4724   -7.0744   23.8916 H   0  0  0  0  0  0  0  0  0  0  0  0
    6.2081   -8.5049   21.9786 H   0  0  0  0  0  0  0  0  0  0  0  0
  1  2  1  0
  2  3  1  0
  2  4  1  0
  4  5  1  0
  5  6  1  0
  6  7  2  0
  6  8  1  0
  8  9  1  0
  9 10  1  0
 10 11  2  0
 11 12  1  0
 12 13  1  0
  2 14  1  0
 14 15  1  0
 15 16  2  0
 15 17  1  0
 17 18  1  0
 18 19  2  0
 19 20  1  0
 20 21  2  0
 21 22  1  0
 12  8  2  0
 22 18  1  0
  1 23  1  0
  1 24  1  0
  1 25  1  0
  3 26  1  0
  3 27  1  0
  3 28  1  0
  4 29  1  0
  4 30  1  0
  5 31  1  0
  9 32  1  0
 11 33  1  0
 14 34  1  0
 17 35  1  0
 17 36  1  0
 19 37  1  0
 20 38  1  0
 22 39  1  0
M  END
>  <Energy>  (870) 
827.36746910435124

>  <compound_id>  (870) 
13534

>  <target_id>  (870) 
1

>  <reference_id>  (870) 
96

>  <inspiration_ids>  (870) 
[96, 122]

>  <energy_score>  (870) 
793.3611962380473

>  <distance_score>  (870) 
11.025893951878817

>  <path>  (870) 
/opt/xchem-fragalysis-2/maxwin/BulkDock/SCRATCH/511016/C13534-P96/C13534-P96.minimised.mol

>  <scratch_subdir>  (870) 
/opt/xchem-fragalysis-2/maxwin/BulkDock/SCRATCH/511016/C13534-P96

>  <fragmenstein_runtime>  (870) 
15.875197887420654

>  <fragmenstein_outcome>  (870) 
too moved

>  <fragmenstein_mode>  (870) 
expansion

>  <fragmenstein_error>  (870) 


$$$$
C13534-P122
     RDKit          3D

 39 40  0  0  0  0  0  0  0  0999 V2000
   -2.2286  -14.1228   17.1602 C   0  0  0  0  0  0  0  0  0  0  0  0
   -1.5139  -14.8482   18.4126 C   0  0  0  0  0  0  0  0  0  0  0  0
   -1.8201  -15.2111   19.9335 C   0  0  0  0  0  0  0  0  0  0  0  0
   -2.4083  -16.5988   18.2944 C   0  0  0  0  0  0  0  0  0  0  0  0
   -2.6621  -17.9505   18.8552 N   0  0  0  0  0  0  0  0  0  0  0  0
   -3.4323  -19.0712   18.3268 C   0  0  0  0  0  0  0  0  0  0  0  0
   -3.9793  -19.2097   17.2733 O   0  0  0  0  0  0  0  0  0  0  0  0
   -3.6847  -20.1838   19.2505 C   0  0  0  0  0  0  0  0  0  0  0  0
   -2.8662  -21.1808   19.7017 N   0  0  0  0  0  0  0  0  0  0  0  0
   -3.4491  -22.0535   20.5590 N   0  0  0  0  0  0  0  0  0  0  0  0
   -4.7328  -21.6906   20.5501 C   0  0  0  0  0  0  0  0  0  0  0  0
   -4.9340  -20.5451   19.7601 C   0  0  0  0  0  0  0  0  0  0  0  0
   -6.4267  -19.7626   19.5476 Cl  0  0  0  0  0  0  0  0  0  0  0  0
    0.0241  -13.6025   17.9574 N   0  0  0  0  0  0  0  0  0  0  0  0
    1.8400  -13.8400   18.0244 C   0  0  0  0  0  0  0  0  0  0  0  0
    2.4441  -14.8781   18.2818 O   0  0  0  0  0  0  0  0  0  0  0  0
    3.1524  -12.1788   17.8257 C   0  0  0  0  0  0  0  0  0  0  0  0
    2.5989  -10.2645   17.7298 C   0  0  0  0  0  0  0  0  0  0  0  0
    1.5879   -9.2123   18.0216 C   0  0  0  0  0  0  0  0  0  0  0  0
    1.9561   -8.2547   17.2055 C   0  0  0  0  0  0  0  0  0  0  0  0
    3.1503   -8.0929   17.6504 N   0  0  0  0  0  0  0  0  0  0  0  0
    3.4718   -9.3034   17.8923 N   0  0  0  0  0  0  0  0  0  0  0  0
   -1.5807  -14.2469   16.3034 H   0  0  0  0  0  0  0  0  0  0  0  0
   -2.3486  -13.0683   17.4088 H   0  0  0  0  0  0  0  0  0  0  0  0
   -3.1328  -14.5231   16.6798 H   0  0  0  0  0  0  0  0  0  0  0  0
   -2.7277  -15.6774   20.2841 H   0  0  0  0  0  0  0  0  0  0  0  0
   -1.1329  -16.0332   20.2146 H   0  0  0  0  0  0  0  0  0  0  0  0
   -1.9066  -14.3470   20.5911 H   0  0  0  0  0  0  0  0  0  0  0  0
   -3.2215  -16.4461   18.9863 H   0  0  0  0  0  0  0  0  0  0  0  0
   -3.2271  -16.5243   17.5333 H   0  0  0  0  0  0  0  0  0  0  0  0
   -2.4146  -18.1436   19.8160 H   0  0  0  0  0  0  0  0  0  0  0  0
   -1.8778  -21.3006   19.4959 H   0  0  0  0  0  0  0  0  0  0  0  0
   -5.4546  -22.2578   21.1239 H   0  0  0  0  0  0  0  0  0  0  0  0
   -0.1847  -12.6398   17.8047 H   0  0  0  0  0  0  0  0  0  0  0  0
    3.9426  -12.4800   18.5310 H   0  0  0  0  0  0  0  0  0  0  0  0
    3.6794  -11.9421   16.8879 H   0  0  0  0  0  0  0  0  0  0  0  0
    0.5486   -9.0580   18.2474 H   0  0  0  0  0  0  0  0  0  0  0  0
    1.4182   -7.6938   16.4715 H   0  0  0  0  0  0  0  0  0  0  0  0
    4.3863   -9.5336   18.2649 H   0  0  0  0  0  0  0  0  0  0  0  0
  1  2  1  0
  2  3  1  0
  2  4  1  0
  4  5  1  0
  5  6  1  0
  6  7  2  0
  6  8  1  0
  8  9  1  0
  9 10  1  0
 10 11  2  0
 11 12  1  0
 12 13  1  0
  2 14  1  0
 14 15  1  0
 15 16  2  0
 15 17  1  0
 17 18  1  0
 18 19  2  0
 19 20  1  0
 20 21  2  0
 21 22  1  0
 12  8  2  0
 22 18  1  0
  1 23  1  0
  1 24  1  0
  1 25  1  0
  3 26  1  0
  3 27  1  0
  3 28  1  0
  4 29  1  0
  4 30  1  0
  5 31  1  0
  9 32  1  0
 11 33  1  0
 14 34  1  0
 17 35  1  0
 17 36  1  0
 19 37  1  0
 20 38  1  0
 22 39  1  0
M  END
>  <Energy>  (871) 
633.60521684926562

>  <compound_id>  (871) 
13534

>  <target_id>  (871) 
1

>  <reference_id>  (871) 
122

>  <inspiration_ids>  (871) 
[96, 122]

>  <energy_score>  (871) 
599.5989439829427

>  <distance_score>  (871) 
12.091278862401456

>  <path>  (871) 
/opt/xchem-fragalysis-2/maxwin/BulkDock/SCRATCH/511016/C13534-P122/C13534-P122.minimised.mol

>  <scratch_subdir>  (871) 
/opt/xchem-fragalysis-2/maxwin/BulkDock/SCRATCH/511016/C13534-P122

>  <fragmenstein_runtime>  (871) 
32.920891523361206

>  <fragmenstein_outcome>  (871) 
too moved

>  <fragmenstein_mode>  (871) 
expansion

>  <fragmenstein_error>  (871) 


$$$$
C13535-P96
     RDKit          3D

 45 46  0  0  0  0  0  0  0  0999 V2000
    2.3228  -12.9893   20.9937 C   0  0  0  0  0  0  0  0  0  0  0  0
    1.5982  -13.2170   19.1092 C   0  0  0  0  0  0  0  0  0  0  0  0
    0.1757  -14.6892   19.4601 C   0  0  0  0  0  0  0  0  0  0  0  0
   -1.3694  -15.6000   19.0066 C   0  0  0  0  0  0  0  0  0  0  0  0
   -2.0211  -16.9561   19.0284 N   0  0  0  0  0  0  0  0  0  0  0  0
   -3.2881  -17.4242   18.4570 C   0  0  0  0  0  0  0  0  0  0  0  0
   -4.1621  -16.8218   17.8969 O   0  0  0  0  0  0  0  0  0  0  0  0
   -3.4914  -18.9955   18.4893 C   0  0  0  0  0  0  0  0  0  0  0  0
   -4.7362  -19.5311   19.2019 C   0  0  0  0  0  0  0  0  0  0  0  0
   -4.9398  -20.6911   19.9392 C   0  0  0  0  0  0  0  0  0  0  0  0
   -6.2572  -20.6035   20.4349 C   0  0  0  0  0  0  0  0  0  0  0  0
   -6.8648  -19.4861   20.0329 N   0  0  0  0  0  0  0  0  0  0  0  0
   -5.9502  -18.8847   19.2404 N   0  0  0  0  0  0  0  0  0  0  0  0
    2.8174  -11.7222   19.3035 N   0  0  0  0  0  0  0  0  0  0  0  0
    2.8421  -10.3352   20.4711 C   0  0  0  0  0  0  0  0  0  0  0  0
    1.9340  -10.1665   21.2352 O   0  0  0  0  0  0  0  0  0  0  0  0
    4.4866   -9.0257   20.7991 C   0  0  0  0  0  0  0  0  0  0  0  0
    5.3416   -9.8053   22.3439 C   0  0  0  0  0  0  0  0  0  0  0  0
    5.6861   -7.9590   21.8161 N   0  0  0  0  0  0  0  0  0  0  0  0
    7.1168   -8.0696   22.0011 C   0  0  0  0  0  0  0  0  0  0  0  0
    7.5867   -6.9734   22.6656 C   0  0  0  0  0  0  0  0  0  0  0  0
    9.1757   -6.6132   23.1040 Cl  0  0  0  0  0  0  0  0  0  0  0  0
    6.4437   -6.2775   23.0197 C   0  0  0  0  0  0  0  0  0  0  0  0
    5.3150   -6.7939   22.5343 N   0  0  0  0  0  0  0  0  0  0  0  0
    1.4700  -13.1354   21.6612 H   0  0  0  0  0  0  0  0  0  0  0  0
    3.1035  -13.6344   21.4027 H   0  0  0  0  0  0  0  0  0  0  0  0
    2.4131  -12.0513   21.5085 H   0  0  0  0  0  0  0  0  0  0  0  0
    1.8149  -13.4668   18.0571 H   0  0  0  0  0  0  0  0  0  0  0  0
    0.5065  -15.6836   19.5782 H   0  0  0  0  0  0  0  0  0  0  0  0
   -0.2688  -14.3485   20.3886 H   0  0  0  0  0  0  0  0  0  0  0  0
   -2.0242  -15.0060   18.3642 H   0  0  0  0  0  0  0  0  0  0  0  0
   -0.6056  -16.2807   18.6293 H   0  0  0  0  0  0  0  0  0  0  0  0
   -1.4980  -17.7386   19.3432 H   0  0  0  0  0  0  0  0  0  0  0  0
   -2.6259  -19.4991   18.9065 H   0  0  0  0  0  0  0  0  0  0  0  0
   -3.5424  -19.3137   17.4394 H   0  0  0  0  0  0  0  0  0  0  0  0
   -4.2213  -21.4774   20.1217 H   0  0  0  0  0  0  0  0  0  0  0  0
   -6.7935  -21.3002   21.0675 H   0  0  0  0  0  0  0  0  0  0  0  0
   -6.1914  -18.0019   18.7967 H   0  0  0  0  0  0  0  0  0  0  0  0
    3.6237  -11.6456   18.6906 H   0  0  0  0  0  0  0  0  0  0  0  0
    5.2533   -9.2048   20.0436 H   0  0  0  0  0  0  0  0  0  0  0  0
    4.7643  -10.4123   23.0285 H   0  0  0  0  0  0  0  0  0  0  0  0
    6.2604  -10.2920   22.0258 H   0  0  0  0  0  0  0  0  0  0  0  0
    5.6563   -9.2352   23.2539 H   0  0  0  0  0  0  0  0  0  0  0  0
    7.6558   -8.9673   21.7277 H   0  0  0  0  0  0  0  0  0  0  0  0
    6.3770   -5.4116   23.6586 H   0  0  0  0  0  0  0  0  0  0  0  0
  1  2  1  0
  2  3  1  0
  3  4  1  0
  4  5  1  0
  5  6  1  0
  6  7  2  0
  6  8  1  0
  8  9  1  0
  9 10  2  0
 10 11  1  0
 11 12  2  0
 12 13  1  0
  2 14  1  0
 14 15  1  0
 15 16  2  0
 15 17  1  0
 17 18  1  0
 17 19  1  0
 19 20  1  0
 20 21  2  0
 21 22  1  0
 21 23  1  0
 23 24  2  0
 13  9  1  0
 24 19  1  0
  1 25  1  0
  1 26  1  0
  1 27  1  0
  2 28  1  0
  3 29  1  0
  3 30  1  0
  4 31  1  0
  4 32  1  0
  5 33  1  0
  8 34  1  0
  8 35  1  0
 10 36  1  0
 11 37  1  0
 13 38  1  0
 14 39  1  0
 17 40  1  0
 18 41  1  0
 18 42  1  0
 18 43  1  0
 20 44  1  0
 23 45  1  0
M  END
>  <Energy>  (872) 
881.49461758025734

>  <compound_id>  (872) 
13535

>  <target_id>  (872) 
1

>  <reference_id>  (872) 
96

>  <inspiration_ids>  (872) 
[96, 122]

>  <energy_score>  (872) 
807.2145332881166

>  <distance_score>  (872) 
10.857209807147095

>  <path>  (872) 
/opt/xchem-fragalysis-2/maxwin/BulkDock/SCRATCH/511016/C13535-P96/C13535-P96.minimised.mol

>  <scratch_subdir>  (872) 
/opt/xchem-fragalysis-2/maxwin/BulkDock/SCRATCH/511016/C13535-P96

>  <fragmenstein_runtime>  (872) 
24.167171716690063

>  <fragmenstein_outcome>  (872) 
too moved

>  <fragmenstein_mode>  (872) 
expansion

>  <fragmenstein_error>  (872) 


$$$$
C13535-P122
     RDKit          3D

 45 46  0  0  0  0  0  0  0  0999 V2000
    0.5234   -8.3186   17.0368 C   0  0  0  0  0  0  0  0  0  0  0  0
    0.2833   -8.7549   18.4008 C   0  0  0  0  0  0  0  0  0  0  0  0
   -1.3634   -9.9897   18.3609 C   0  0  0  0  0  0  0  0  0  0  0  0
   -1.6790  -11.9385   18.6395 C   0  0  0  0  0  0  0  0  0  0  0  0
   -1.9003  -13.7230   18.1235 N   0  0  0  0  0  0  0  0  0  0  0  0
   -2.0214  -15.2308   19.1256 C   0  0  0  0  0  0  0  0  0  0  0  0
   -1.8836  -15.3032   20.3171 O   0  0  0  0  0  0  0  0  0  0  0  0
   -2.5287  -16.8054   18.4838 C   0  0  0  0  0  0  0  0  0  0  0  0
   -3.6157  -17.8931   19.0136 C   0  0  0  0  0  0  0  0  0  0  0  0
   -3.5186  -19.2689   19.2611 C   0  0  0  0  0  0  0  0  0  0  0  0
   -4.8259  -19.7775   19.4431 C   0  0  0  0  0  0  0  0  0  0  0  0
   -5.7220  -18.8420   19.1558 N   0  0  0  0  0  0  0  0  0  0  0  0
   -4.9476  -17.8661   18.6522 N   0  0  0  0  0  0  0  0  0  0  0  0
    2.0677   -8.1629   18.7521 N   0  0  0  0  0  0  0  0  0  0  0  0
    3.6727   -8.7480   18.1838 C   0  0  0  0  0  0  0  0  0  0  0  0
    3.7455   -9.7548   17.5144 O   0  0  0  0  0  0  0  0  0  0  0  0
    5.4904   -7.5438   18.5371 C   0  0  0  0  0  0  0  0  0  0  0  0
    6.4090   -7.7576   19.9340 C   0  0  0  0  0  0  0  0  0  0  0  0
    7.3609   -7.1765   19.3072 N   0  0  0  0  0  0  0  0  0  0  0  0
    9.2010   -6.3336   19.3240 C   0  0  0  0  0  0  0  0  0  0  0  0
   10.2757   -5.7602   20.2187 C   0  0  0  0  0  0  0  0  0  0  0  0
   12.1591   -5.4079   20.3093 Cl  0  0  0  0  0  0  0  0  0  0  0  0
    9.5969   -6.0180   19.0102 C   0  0  0  0  0  0  0  0  0  0  0  0
    7.6731   -6.1944   18.7154 N   0  0  0  0  0  0  0  0  0  0  0  0
    1.2879   -7.6759   16.6485 H   0  0  0  0  0  0  0  0  0  0  0  0
    1.2642   -9.0454   17.1142 H   0  0  0  0  0  0  0  0  0  0  0  0
   -0.1862   -8.4952   16.2909 H   0  0  0  0  0  0  0  0  0  0  0  0
   -0.1756   -8.0508   19.0842 H   0  0  0  0  0  0  0  0  0  0  0  0
   -2.0381   -9.6388   17.5784 H   0  0  0  0  0  0  0  0  0  0  0  0
   -1.8607   -9.6221   19.2809 H   0  0  0  0  0  0  0  0  0  0  0  0
   -0.7552  -12.1609   18.2074 H   0  0  0  0  0  0  0  0  0  0  0  0
   -1.7414  -12.0035   19.7300 H   0  0  0  0  0  0  0  0  0  0  0  0
   -1.9774  -13.9608   17.1391 H   0  0  0  0  0  0  0  0  0  0  0  0
   -3.1763  -16.5588   17.6461 H   0  0  0  0  0  0  0  0  0  0  0  0
   -1.7144  -17.5128   18.4192 H   0  0  0  0  0  0  0  0  0  0  0  0
   -2.6322  -19.8642   19.3254 H   0  0  0  0  0  0  0  0  0  0  0  0
   -5.1453  -20.7694   19.7354 H   0  0  0  0  0  0  0  0  0  0  0  0
   -5.3410  -17.2887   17.9284 H   0  0  0  0  0  0  0  0  0  0  0  0
    2.1993   -7.2707   19.2174 H   0  0  0  0  0  0  0  0  0  0  0  0
    5.4456   -6.5423   18.0763 H   0  0  0  0  0  0  0  0  0  0  0  0
    5.3496   -7.9141   19.8100 H   0  0  0  0  0  0  0  0  0  0  0  0
    6.8111   -7.0856   20.9044 H   0  0  0  0  0  0  0  0  0  0  0  0
    5.9923   -7.6252   20.9633 H   0  0  0  0  0  0  0  0  0  0  0  0
    8.6463   -5.0125   19.9615 H   0  0  0  0  0  0  0  0  0  0  0  0
   10.3782   -5.4097   18.2119 H   0  0  0  0  0  0  0  0  0  0  0  0
  1  2  1  0
  2  3  1  0
  3  4  1  0
  4  5  1  0
  5  6  1  0
  6  7  2  0
  6  8  1  0
  8  9  1  0
  9 10  2  0
 10 11  1  0
 11 12  2  0
 12 13  1  0
  2 14  1  0
 14 15  1  0
 15 16  2  0
 15 17  1  0
 17 18  1  0
 17 19  1  0
 19 20  1  0
 20 21  2  0
 21 22  1  0
 21 23  1  0
 23 24  2  0
 13  9  1  0
 24 19  1  0
  1 25  1  0
  1 26  1  0
  1 27  1  0
  2 28  1  0
  3 29  1  0
  3 30  1  0
  4 31  1  0
  4 32  1  0
  5 33  1  0
  8 34  1  0
  8 35  1  0
 10 36  1  0
 11 37  1  0
 13 38  1  0
 14 39  1  0
 17 40  1  0
 18 41  1  0
 18 42  1  0
 18 43  1  0
 20 44  1  0
 23 45  1  0
M  END
>  <Energy>  (873) 
2106.2138342606349

>  <compound_id>  (873) 
13535

>  <target_id>  (873) 
1

>  <reference_id>  (873) 
122

>  <inspiration_ids>  (873) 
[96, 122]

>  <energy_score>  (873) 
2031.9337499684952

>  <distance_score>  (873) 
10.339032478754637

>  <path>  (873) 
/opt/xchem-fragalysis-2/maxwin/BulkDock/SCRATCH/511016/C13535-P122/C13535-P122.minimised.mol

>  <scratch_subdir>  (873) 
/opt/xchem-fragalysis-2/maxwin/BulkDock/SCRATCH/511016/C13535-P122

>  <fragmenstein_runtime>  (873) 
39.97273373603821

>  <fragmenstein_outcome>  (873) 
too moved

>  <fragmenstein_mode>  (873) 
expansion

>  <fragmenstein_error>  (873) 


$$$$
C13536-P96
     RDKit          3D

 45 46  0  0  0  0  0  0  0  0999 V2000
   -7.8940  -17.9852   21.4138 C   0  0  0  0  0  0  0  0  0  0  0  0
   -7.5342  -16.6086   20.9747 C   0  0  0  0  0  0  0  0  0  0  0  0
   -7.1809  -16.0664   19.7501 C   0  0  0  0  0  0  0  0  0  0  0  0
   -6.9921  -14.6611   19.9579 C   0  0  0  0  0  0  0  0  0  0  0  0
   -6.7505  -13.4972   18.9505 C   0  0  0  0  0  0  0  0  0  0  0  0
   -5.8633  -13.7338   17.6845 C   0  0  0  0  0  0  0  0  0  0  0  0
   -5.5214  -14.8646   17.4390 O   0  0  0  0  0  0  0  0  0  0  0  0
   -5.6664  -12.4846   16.9144 N   0  0  0  0  0  0  0  0  0  0  0  0
   -5.0901  -12.2644   15.5621 C   0  0  0  0  0  0  0  0  0  0  0  0
   -4.3052  -11.7674   17.3519 C   0  0  0  0  0  0  0  0  0  0  0  0
   -4.1446  -10.1687   17.2629 C   0  0  0  0  0  0  0  0  0  0  0  0
   -2.7566   -9.6154   17.1434 N   0  0  0  0  0  0  0  0  0  0  0  0
   -2.2722   -8.3335   16.5963 C   0  0  0  0  0  0  0  0  0  0  0  0
   -2.8625   -7.4498   16.0391 O   0  0  0  0  0  0  0  0  0  0  0  0
   -0.7117   -8.1734   16.7986 C   0  0  0  0  0  0  0  0  0  0  0  0
   -0.0480   -6.8228   16.3518 C   0  0  0  0  0  0  0  0  0  0  0  0
    1.4522   -6.6568   16.5654 C   0  0  0  0  0  0  0  0  0  0  0  0
    2.3806   -5.8489   15.9265 C   0  0  0  0  0  0  0  0  0  0  0  0
    3.5987   -6.0608   16.6009 C   0  0  0  0  0  0  0  0  0  0  0  0
    3.4775   -6.9448   17.5926 N   0  0  0  0  0  0  0  0  0  0  0  0
    2.1679   -7.2866   17.5542 N   0  0  0  0  0  0  0  0  0  0  0  0
   -7.2169  -14.3730   21.2580 N   0  0  0  0  0  0  0  0  0  0  0  0
   -7.5039  -15.5541   21.8387 N   0  0  0  0  0  0  0  0  0  0  0  0
   -8.7471  -17.9642   22.0992 H   0  0  0  0  0  0  0  0  0  0  0  0
   -8.1677  -18.6016   20.5524 H   0  0  0  0  0  0  0  0  0  0  0  0
   -7.0464  -18.4517   21.9246 H   0  0  0  0  0  0  0  0  0  0  0  0
   -7.0986  -16.5955   18.8091 H   0  0  0  0  0  0  0  0  0  0  0  0
   -6.4328  -12.5939   19.4686 H   0  0  0  0  0  0  0  0  0  0  0  0
   -7.7482  -13.2622   18.5504 H   0  0  0  0  0  0  0  0  0  0  0  0
   -5.0222  -11.2318   15.2142 H   0  0  0  0  0  0  0  0  0  0  0  0
   -4.2221  -12.8963   15.3245 H   0  0  0  0  0  0  0  0  0  0  0  0
   -5.8615  -12.6923   14.9040 H   0  0  0  0  0  0  0  0  0  0  0  0
   -3.4153  -12.2801   16.9588 H   0  0  0  0  0  0  0  0  0  0  0  0
   -4.2222  -11.9953   18.4139 H   0  0  0  0  0  0  0  0  0  0  0  0
   -4.7273   -9.7239   16.4526 H   0  0  0  0  0  0  0  0  0  0  0  0
   -4.5527   -9.7409   18.1864 H   0  0  0  0  0  0  0  0  0  0  0  0
   -1.9952  -10.0810   17.6208 H   0  0  0  0  0  0  0  0  0  0  0  0
   -0.2397   -8.9685   16.2157 H   0  0  0  0  0  0  0  0  0  0  0  0
   -0.5245   -8.3192   17.8663 H   0  0  0  0  0  0  0  0  0  0  0  0
   -0.5526   -6.0030   16.8791 H   0  0  0  0  0  0  0  0  0  0  0  0
   -0.2604   -6.6764   15.2849 H   0  0  0  0  0  0  0  0  0  0  0  0
    2.1919   -5.1835   15.0960 H   0  0  0  0  0  0  0  0  0  0  0  0
    4.5600   -5.6063   16.4116 H   0  0  0  0  0  0  0  0  0  0  0  0
    1.8190   -7.9754   18.2223 H   0  0  0  0  0  0  0  0  0  0  0  0
   -7.6903  -15.5591   22.8348 H   0  0  0  0  0  0  0  0  0  0  0  0
  1  2  1  0
  2  3  2  0
  3  4  1  0
  4  5  1  0
  5  6  1  0
  6  7  2  0
  6  8  1  0
  8  9  1  0
  8 10  1  0
 10 11  1  0
 11 12  1  0
 12 13  1  0
 13 14  2  0
 13 15  1  0
 15 16  1  0
 16 17  1  0
 17 18  2  0
 18 19  1  0
 19 20  2  0
 20 21  1  0
  4 22  2  0
 22 23  1  0
 23  2  1  0
 21 17  1  0
  1 24  1  0
  1 25  1  0
  1 26  1  0
  3 27  1  0
  5 28  1  0
  5 29  1  0
  9 30  1  0
  9 31  1  0
  9 32  1  0
 10 33  1  0
 10 34  1  0
 11 35  1  0
 11 36  1  0
 12 37  1  0
 15 38  1  0
 15 39  1  0
 16 40  1  0
 16 41  1  0
 18 42  1  0
 19 43  1  0
 21 44  1  0
 23 45  1  0
M  END
>  <Energy>  (874) 
118.28418598977788

>  <compound_id>  (874) 
13536

>  <target_id>  (874) 
1

>  <reference_id>  (874) 
96

>  <inspiration_ids>  (874) 
[96, 122]

>  <energy_score>  (874) 
54.22506136528699

>  <distance_score>  (874) 
14.855336632541801

>  <path>  (874) 
/opt/xchem-fragalysis-2/maxwin/BulkDock/SCRATCH/511016/C13536-P96/C13536-P96.minimised.mol

>  <scratch_subdir>  (874) 
/opt/xchem-fragalysis-2/maxwin/BulkDock/SCRATCH/511016/C13536-P96

>  <fragmenstein_runtime>  (874) 
29.43922257423401

>  <fragmenstein_outcome>  (874) 
too moved

>  <fragmenstein_mode>  (874) 
expansion

>  <fragmenstein_error>  (874) 


$$$$
C13536-P122
     RDKit          3D

 45 46  0  0  0  0  0  0  0  0999 V2000
  -11.6269  -15.3040   29.5893 C   0  0  0  0  0  0  0  0  0  0  0  0
  -10.6391  -15.0909   28.5201 C   0  0  0  0  0  0  0  0  0  0  0  0
   -9.2784  -15.2550   28.4672 C   0  0  0  0  0  0  0  0  0  0  0  0
   -8.9310  -15.0166   27.1222 C   0  0  0  0  0  0  0  0  0  0  0  0
   -7.5674  -15.1166   26.5235 C   0  0  0  0  0  0  0  0  0  0  0  0
   -7.0642  -16.5620   26.5228 C   0  0  0  0  0  0  0  0  0  0  0  0
   -7.7372  -17.3706   27.1045 O   0  0  0  0  0  0  0  0  0  0  0  0
   -5.8725  -16.7358   25.7173 N   0  0  0  0  0  0  0  0  0  0  0  0
   -5.1841  -17.9613   25.2738 C   0  0  0  0  0  0  0  0  0  0  0  0
   -4.6236  -16.6162   26.5900 C   0  0  0  0  0  0  0  0  0  0  0  0
   -3.2124  -15.9952   26.0753 C   0  0  0  0  0  0  0  0  0  0  0  0
   -2.6659  -15.8489   24.5473 N   0  0  0  0  0  0  0  0  0  0  0  0
   -1.2633  -15.0481   23.9043 C   0  0  0  0  0  0  0  0  0  0  0  0
   -0.5555  -14.3978   24.5568 O   0  0  0  0  0  0  0  0  0  0  0  0
   -0.4878  -15.2127   22.0859 C   0  0  0  0  0  0  0  0  0  0  0  0
    1.1516  -15.5129   20.7255 C   0  0  0  0  0  0  0  0  0  0  0  0
    2.4872  -14.6944   19.3364 C   0  0  0  0  0  0  0  0  0  0  0  0
    3.8796  -13.6189   19.1384 C   0  0  0  0  0  0  0  0  0  0  0  0
    4.8107  -14.0945   18.2373 C   0  0  0  0  0  0  0  0  0  0  0  0
    4.1858  -15.0612   17.6225 N   0  0  0  0  0  0  0  0  0  0  0  0
    2.8563  -15.2010   18.0927 N   0  0  0  0  0  0  0  0  0  0  0  0
   -9.9942  -14.6517   26.3939 N   0  0  0  0  0  0  0  0  0  0  0  0
  -10.9960  -14.6396   27.2833 N   0  0  0  0  0  0  0  0  0  0  0  0
  -11.2063  -15.0511   30.5673 H   0  0  0  0  0  0  0  0  0  0  0  0
  -11.9367  -16.3449   29.5990 H   0  0  0  0  0  0  0  0  0  0  0  0
  -12.5182  -14.6850   29.4433 H   0  0  0  0  0  0  0  0  0  0  0  0
   -8.5963  -15.5466   29.2502 H   0  0  0  0  0  0  0  0  0  0  0  0
   -7.6211  -14.7546   25.4918 H   0  0  0  0  0  0  0  0  0  0  0  0
   -6.8948  -14.4960   27.1196 H   0  0  0  0  0  0  0  0  0  0  0  0
   -4.1796  -17.8868   24.8621 H   0  0  0  0  0  0  0  0  0  0  0  0
   -5.2976  -18.7909   25.9850 H   0  0  0  0  0  0  0  0  0  0  0  0
   -5.7820  -18.2629   24.4045 H   0  0  0  0  0  0  0  0  0  0  0  0
   -4.4471  -17.4936   27.2465 H   0  0  0  0  0  0  0  0  0  0  0  0
   -4.9222  -15.9203   27.3900 H   0  0  0  0  0  0  0  0  0  0  0  0
   -2.6590  -16.8947   26.3804 H   0  0  0  0  0  0  0  0  0  0  0  0
   -2.8048  -15.2056   26.7228 H   0  0  0  0  0  0  0  0  0  0  0  0
   -3.1700  -16.2682   23.8020 H   0  0  0  0  0  0  0  0  0  0  0  0
   -1.4721  -14.8861   21.5131 H   0  0  0  0  0  0  0  0  0  0  0  0
   -0.0758  -14.2557   22.3928 H   0  0  0  0  0  0  0  0  0  0  0  0
    0.7528  -16.4062   20.2420 H   0  0  0  0  0  0  0  0  0  0  0  0
    2.0510  -14.9222   20.9642 H   0  0  0  0  0  0  0  0  0  0  0  0
    4.1940  -12.9850   19.9747 H   0  0  0  0  0  0  0  0  0  0  0  0
    5.8344  -13.8280   18.0263 H   0  0  0  0  0  0  0  0  0  0  0  0
    2.2632  -15.6950   17.4606 H   0  0  0  0  0  0  0  0  0  0  0  0
  -11.9162  -14.3577   26.9631 H   0  0  0  0  0  0  0  0  0  0  0  0
  1  2  1  0
  2  3  2  0
  3  4  1  0
  4  5  1  0
  5  6  1  0
  6  7  2  0
  6  8  1  0
  8  9  1  0
  8 10  1  0
 10 11  1  0
 11 12  1  0
 12 13  1  0
 13 14  2  0
 13 15  1  0
 15 16  1  0
 16 17  1  0
 17 18  2  0
 18 19  1  0
 19 20  2  0
 20 21  1  0
  4 22  2  0
 22 23  1  0
 23  2  1  0
 21 17  1  0
  1 24  1  0
  1 25  1  0
  1 26  1  0
  3 27  1  0
  5 28  1  0
  5 29  1  0
  9 30  1  0
  9 31  1  0
  9 32  1  0
 10 33  1  0
 10 34  1  0
 11 35  1  0
 11 36  1  0
 12 37  1  0
 15 38  1  0
 15 39  1  0
 16 40  1  0
 16 41  1  0
 18 42  1  0
 19 43  1  0
 21 44  1  0
 23 45  1  0
M  END
>  <Energy>  (875) 
645.44890494819151

>  <compound_id>  (875) 
13536

>  <target_id>  (875) 
1

>  <reference_id>  (875) 
122

>  <inspiration_ids>  (875) 
[96, 122]

>  <energy_score>  (875) 
581.3897803236887

>  <distance_score>  (875) 
12.468553825417358

>  <path>  (875) 
/opt/xchem-fragalysis-2/maxwin/BulkDock/SCRATCH/511016/C13536-P122/C13536-P122.minimised.mol

>  <scratch_subdir>  (875) 
/opt/xchem-fragalysis-2/maxwin/BulkDock/SCRATCH/511016/C13536-P122

>  <fragmenstein_runtime>  (875) 
32.85721302032471

>  <fragmenstein_outcome>  (875) 
too moved

>  <fragmenstein_mode>  (875) 
expansion

>  <fragmenstein_error>  (875) 


$$$$
C13537-P96
     RDKit          3D

 39 41  0  0  0  0  0  0  0  0999 V2000
   -2.0872  -17.7529   17.9419 O   0  0  0  0  0  0  0  0  0  0  0  0
   -2.3904  -16.7735   18.5765 C   0  0  0  0  0  0  0  0  0  0  0  0
   -3.9060  -16.8554   19.1017 C   0  0  0  0  0  0  0  0  0  0  0  0
   -4.3544  -18.3414   19.4226 C   0  0  0  0  0  0  0  0  0  0  0  0
   -5.6202  -18.6598   20.2201 C   0  0  0  0  0  0  0  0  0  0  0  0
   -6.3472  -19.8428   20.2384 C   0  0  0  0  0  0  0  0  0  0  0  0
   -7.3436  -19.6760   21.2156 C   0  0  0  0  0  0  0  0  0  0  0  0
   -7.2766  -18.4761   21.7934 N   0  0  0  0  0  0  0  0  0  0  0  0
   -6.2105  -17.8949   21.1999 N   0  0  0  0  0  0  0  0  0  0  0  0
   -1.6051  -15.5126   18.8727 N   0  0  0  0  0  0  0  0  0  0  0  0
    0.1334  -15.0601   18.4832 C   0  0  0  0  0  0  0  0  0  0  0  0
    1.4899  -13.8425   17.3289 C   0  0  0  0  0  0  0  0  0  0  0  0
    3.0137  -12.6872   16.9655 N   0  0  0  0  0  0  0  0  0  0  0  0
    3.3487  -11.2792   17.2950 C   0  0  0  0  0  0  0  0  0  0  0  0
    4.6422  -10.4797   16.9955 C   0  0  0  0  0  0  0  0  0  0  0  0
    5.6977   -9.3255   15.9694 C   0  0  0  0  0  0  0  0  0  0  0  0
    6.9815   -8.8187   16.0863 C   0  0  0  0  0  0  0  0  0  0  0  0
    8.1694   -9.3444   15.3655 C   0  0  0  0  0  0  0  0  0  0  0  0
    7.7142   -9.0369   14.1472 O   0  0  0  0  0  0  0  0  0  0  0  0
    6.6169   -9.6577   14.5422 C   0  0  0  0  0  0  0  0  0  0  0  0
    4.9762  -11.3284   17.9482 C   0  0  0  0  0  0  0  0  0  0  0  0
    4.5716  -12.5885   17.4880 N   0  0  0  0  0  0  0  0  0  0  0  0
   -4.1273  -16.1976   19.9289 H   0  0  0  0  0  0  0  0  0  0  0  0
   -4.5295  -16.5131   18.2688 H   0  0  0  0  0  0  0  0  0  0  0  0
   -3.5285  -18.8523   19.9313 H   0  0  0  0  0  0  0  0  0  0  0  0
   -4.4534  -18.8554   18.4557 H   0  0  0  0  0  0  0  0  0  0  0  0
   -6.1652  -20.7204   19.6322 H   0  0  0  0  0  0  0  0  0  0  0  0
   -8.1078  -20.3806   21.5200 H   0  0  0  0  0  0  0  0  0  0  0  0
   -5.9056  -16.9977   21.5682 H   0  0  0  0  0  0  0  0  0  0  0  0
   -2.1385  -14.9300   19.5099 H   0  0  0  0  0  0  0  0  0  0  0  0
    0.2817  -14.7652   19.4774 H   0  0  0  0  0  0  0  0  0  0  0  0
    0.2214  -16.1355   18.2948 H   0  0  0  0  0  0  0  0  0  0  0  0
    1.6771  -13.4332   18.3180 H   0  0  0  0  0  0  0  0  0  0  0  0
    2.0815  -14.5441   16.7547 H   0  0  0  0  0  0  0  0  0  0  0  0
    3.0142  -11.3062   18.3531 H   0  0  0  0  0  0  0  0  0  0  0  0
    7.1182   -7.7599   16.2091 H   0  0  0  0  0  0  0  0  0  0  0  0
    9.2484   -9.2482   15.4584 H   0  0  0  0  0  0  0  0  0  0  0  0
    6.8916  -10.6491   14.1782 H   0  0  0  0  0  0  0  0  0  0  0  0
    5.8094  -11.2053   18.6046 H   0  0  0  0  0  0  0  0  0  0  0  0
  1  2  2  0
  2  3  1  0
  3  4  1  0
  4  5  1  0
  5  6  2  0
  6  7  1  0
  7  8  2  0
  8  9  1  0
  2 10  1  0
 10 11  1  0
 11 12  1  0
 12 13  1  0
 13 14  1  0
 14 15  2  0
 15 16  1  0
 16 17  1  0
 17 18  2  0
 18 19  1  0
 19 20  1  0
 15 21  1  0
 21 22  2  0
  9  5  1  0
 22 13  1  0
 20 16  2  0
  3 23  1  0
  3 24  1  0
  4 25  1  0
  4 26  1  0
  6 27  1  0
  7 28  1  0
  9 29  1  0
 10 30  1  0
 11 31  1  0
 11 32  1  0
 12 33  1  0
 12 34  1  0
 14 35  1  0
 17 36  1  0
 18 37  1  0
 20 38  1  0
 21 39  1  0
M  END
>  <Energy>  (876) 
847.51231102583802

>  <compound_id>  (876) 
13537

>  <target_id>  (876) 
1

>  <reference_id>  (876) 
96

>  <inspiration_ids>  (876) 
[96, 122]

>  <energy_score>  (876) 
808.7971730079626

>  <distance_score>  (876) 
11.471013333830332

>  <path>  (876) 
/opt/xchem-fragalysis-2/maxwin/BulkDock/SCRATCH/511016/C13537-P96/C13537-P96.minimised.mol

>  <scratch_subdir>  (876) 
/opt/xchem-fragalysis-2/maxwin/BulkDock/SCRATCH/511016/C13537-P96

>  <fragmenstein_runtime>  (876) 
14.908844470977783

>  <fragmenstein_outcome>  (876) 
too moved

>  <fragmenstein_mode>  (876) 
expansion

>  <fragmenstein_error>  (876) 


$$$$
C13537-P122
     RDKit          3D

 39 41  0  0  0  0  0  0  0  0999 V2000
    3.4895  -14.0718   24.4816 O   0  0  0  0  0  0  0  0  0  0  0  0
    2.6704  -13.4023   23.9094 C   0  0  0  0  0  0  0  0  0  0  0  0
    0.7898  -14.1176   24.0547 C   0  0  0  0  0  0  0  0  0  0  0  0
   -0.9928  -14.6055   24.5402 C   0  0  0  0  0  0  0  0  0  0  0  0
   -2.4356  -14.8503   25.5687 C   0  0  0  0  0  0  0  0  0  0  0  0
   -2.7627  -14.5556   26.8879 C   0  0  0  0  0  0  0  0  0  0  0  0
   -4.0028  -15.1935   27.1225 C   0  0  0  0  0  0  0  0  0  0  0  0
   -4.4810  -15.7900   26.0303 N   0  0  0  0  0  0  0  0  0  0  0  0
   -3.5624  -15.5044   25.0904 N   0  0  0  0  0  0  0  0  0  0  0  0
    2.8358  -12.2690   23.0744 N   0  0  0  0  0  0  0  0  0  0  0  0
    4.1141  -11.5794   22.5275 C   0  0  0  0  0  0  0  0  0  0  0  0
    5.8110  -11.0648   23.3818 C   0  0  0  0  0  0  0  0  0  0  0  0
    6.8605  -11.1113   24.4304 N   0  0  0  0  0  0  0  0  0  0  0  0
    8.0239  -11.8479   24.5192 C   0  0  0  0  0  0  0  0  0  0  0  0
    8.9856  -11.1098   25.1769 C   0  0  0  0  0  0  0  0  0  0  0  0
   10.3775  -11.4466   25.4190 C   0  0  0  0  0  0  0  0  0  0  0  0
   11.0302  -12.6195   24.9626 C   0  0  0  0  0  0  0  0  0  0  0  0
   12.3298  -12.5305   25.4053 C   0  0  0  0  0  0  0  0  0  0  0  0
   12.5189  -11.3775   26.0985 O   0  0  0  0  0  0  0  0  0  0  0  0
   11.3264  -10.7235   26.1054 C   0  0  0  0  0  0  0  0  0  0  0  0
    8.3367   -9.9382   25.5399 C   0  0  0  0  0  0  0  0  0  0  0  0
    7.0650   -9.9429   25.1585 N   0  0  0  0  0  0  0  0  0  0  0  0
    0.1217  -13.9154   23.1607 H   0  0  0  0  0  0  0  0  0  0  0  0
    1.3478  -14.8193   23.4474 H   0  0  0  0  0  0  0  0  0  0  0  0
   -1.1944  -13.6586   25.0553 H   0  0  0  0  0  0  0  0  0  0  0  0
   -1.3874  -15.0220   23.6337 H   0  0  0  0  0  0  0  0  0  0  0  0
   -2.1500  -14.0247   27.6029 H   0  0  0  0  0  0  0  0  0  0  0  0
   -4.5684  -15.2441   28.0442 H   0  0  0  0  0  0  0  0  0  0  0  0
   -3.7591  -15.7856   24.1373 H   0  0  0  0  0  0  0  0  0  0  0  0
    1.9289  -11.9081   22.8348 H   0  0  0  0  0  0  0  0  0  0  0  0
    4.3149  -11.9462   21.5140 H   0  0  0  0  0  0  0  0  0  0  0  0
    3.6377  -10.6754   22.6271 H   0  0  0  0  0  0  0  0  0  0  0  0
    6.4182  -11.0160   22.5048 H   0  0  0  0  0  0  0  0  0  0  0  0
    5.3392  -10.1832   23.6876 H   0  0  0  0  0  0  0  0  0  0  0  0
    8.1742  -12.7900   24.0459 H   0  0  0  0  0  0  0  0  0  0  0  0
   10.6122  -13.4305   24.3809 H   0  0  0  0  0  0  0  0  0  0  0  0
   13.1969  -13.1695   25.3145 H   0  0  0  0  0  0  0  0  0  0  0  0
   11.3212   -9.7784   26.6296 H   0  0  0  0  0  0  0  0  0  0  0  0
    8.7130   -9.0787   26.0778 H   0  0  0  0  0  0  0  0  0  0  0  0
  1  2  2  0
  2  3  1  0
  3  4  1  0
  4  5  1  0
  5  6  2  0
  6  7  1  0
  7  8  2  0
  8  9  1  0
  2 10  1  0
 10 11  1  0
 11 12  1  0
 12 13  1  0
 13 14  1  0
 14 15  2  0
 15 16  1  0
 16 17  1  0
 17 18  2  0
 18 19  1  0
 19 20  1  0
 15 21  1  0
 21 22  2  0
  9  5  1  0
 22 13  1  0
 20 16  2  0
  3 23  1  0
  3 24  1  0
  4 25  1  0
  4 26  1  0
  6 27  1  0
  7 28  1  0
  9 29  1  0
 10 30  1  0
 11 31  1  0
 11 32  1  0
 12 33  1  0
 12 34  1  0
 14 35  1  0
 17 36  1  0
 18 37  1  0
 20 38  1  0
 21 39  1  0
M  END
>  <Energy>  (877) 
407.36668468018547

>  <compound_id>  (877) 
13537

>  <target_id>  (877) 
1

>  <reference_id>  (877) 
122

>  <inspiration_ids>  (877) 
[96, 122]

>  <energy_score>  (877) 
368.65154666232036

>  <distance_score>  (877) 
12.673058541627197

>  <path>  (877) 
/opt/xchem-fragalysis-2/maxwin/BulkDock/SCRATCH/511016/C13537-P122/C13537-P122.minimised.mol

>  <scratch_subdir>  (877) 
/opt/xchem-fragalysis-2/maxwin/BulkDock/SCRATCH/511016/C13537-P122

>  <fragmenstein_runtime>  (877) 
19.384372234344482

>  <fragmenstein_outcome>  (877) 
too moved

>  <fragmenstein_mode>  (877) 
expansion

>  <fragmenstein_error>  (877) 


$$$$
C13538-P96
     RDKit          3D

 34 36  0  0  0  0  0  0  0  0999 V2000
   -0.4507  -16.7625   15.0226 O   0  0  0  0  0  0  0  0  0  0  0  0
   -0.5464  -15.7817   16.0825 S   0  0  0  0  0  0  0  0  0  0  0  0
   -1.6640  -14.8672   16.1552 O   0  0  0  0  0  0  0  0  0  0  0  0
   -0.5275  -16.7455   17.5621 N   0  0  0  0  0  0  0  0  0  0  0  0
   -1.8748  -17.4244   18.0999 C   0  0  0  0  0  0  0  0  0  0  0  0
   -1.6659  -18.3761   19.4046 C   0  0  0  0  0  0  0  0  0  0  0  0
   -2.7725  -19.1463   20.0136 N   0  0  0  0  0  0  0  0  0  0  0  0
   -2.7499  -19.8402   21.2265 C   0  0  0  0  0  0  0  0  0  0  0  0
   -4.0327  -20.3088   21.4580 C   0  0  0  0  0  0  0  0  0  0  0  0
   -4.6250  -20.9732   22.6202 C   0  0  0  0  0  0  0  0  0  0  0  0
   -4.0960  -20.9516   23.9339 C   0  0  0  0  0  0  0  0  0  0  0  0
   -5.0009  -21.6208   24.7226 C   0  0  0  0  0  0  0  0  0  0  0  0
   -6.0366  -22.0837   23.9799 O   0  0  0  0  0  0  0  0  0  0  0  0
   -5.8102  -21.6771   22.7024 C   0  0  0  0  0  0  0  0  0  0  0  0
   -4.7332  -19.9339   20.2961 C   0  0  0  0  0  0  0  0  0  0  0  0
   -3.9812  -19.2430   19.4247 N   0  0  0  0  0  0  0  0  0  0  0  0
    0.8837  -14.6979   15.7471 C   0  0  0  0  0  0  0  0  0  0  0  0
    2.2699  -14.8107   15.6834 C   0  0  0  0  0  0  0  0  0  0  0  0
    2.7649  -13.5323   15.3402 C   0  0  0  0  0  0  0  0  0  0  0  0
    1.7778  -12.6719   15.0952 N   0  0  0  0  0  0  0  0  0  0  0  0
    0.6629  -13.3984   15.3358 N   0  0  0  0  0  0  0  0  0  0  0  0
    0.1268  -17.5048   17.3540 H   0  0  0  0  0  0  0  0  0  0  0  0
   -2.5713  -16.6186   18.3510 H   0  0  0  0  0  0  0  0  0  0  0  0
   -2.2802  -18.0294   17.2825 H   0  0  0  0  0  0  0  0  0  0  0  0
   -1.2370  -17.7678   20.2062 H   0  0  0  0  0  0  0  0  0  0  0  0
   -0.9155  -19.1310   19.1383 H   0  0  0  0  0  0  0  0  0  0  0  0
   -1.8458  -19.8643   21.8187 H   0  0  0  0  0  0  0  0  0  0  0  0
   -3.1928  -20.4676   24.2734 H   0  0  0  0  0  0  0  0  0  0  0  0
   -5.0587  -21.8185   25.7798 H   0  0  0  0  0  0  0  0  0  0  0  0
   -6.5744  -21.9565   21.9893 H   0  0  0  0  0  0  0  0  0  0  0  0
   -5.7732  -20.1066   20.0489 H   0  0  0  0  0  0  0  0  0  0  0  0
    2.8503  -15.6981   15.8835 H   0  0  0  0  0  0  0  0  0  0  0  0
    3.7928  -13.2083   15.2399 H   0  0  0  0  0  0  0  0  0  0  0  0
   -0.2438  -12.9554   15.2201 H   0  0  0  0  0  0  0  0  0  0  0  0
  1  2  2  0
  2  3  2  0
  2  4  1  0
  4  5  1  0
  5  6  1  0
  6  7  1  0
  7  8  1  0
  8  9  2  0
  9 10  1  0
 10 11  1  0
 11 12  2  0
 12 13  1  0
 13 14  1  0
  9 15  1  0
 15 16  2  0
  2 17  1  0
 17 18  2  0
 18 19  1  0
 19 20  2  0
 20 21  1  0
 16  7  1  0
 21 17  1  0
 14 10  2  0
  4 22  1  0
  5 23  1  0
  5 24  1  0
  6 25  1  0
  6 26  1  0
  8 27  1  0
 11 28  1  0
 12 29  1  0
 14 30  1  0
 15 31  1  0
 18 32  1  0
 19 33  1  0
 21 34  1  0
M  END
>  <Energy>  (878) 
-52.518394506285283

>  <compound_id>  (878) 
13538

>  <target_id>  (878) 
1

>  <reference_id>  (878) 
96

>  <inspiration_ids>  (878) 
[96, 122]

>  <energy_score>  (878) 
-18.944570437006632

>  <distance_score>  (878) 
13.478433995514283

>  <path>  (878) 
/opt/xchem-fragalysis-2/maxwin/BulkDock/SCRATCH/511016/C13538-P96/C13538-P96.minimised.mol

>  <scratch_subdir>  (878) 
/opt/xchem-fragalysis-2/maxwin/BulkDock/SCRATCH/511016/C13538-P96

>  <fragmenstein_runtime>  (878) 
15.324513912200928

>  <fragmenstein_outcome>  (878) 
too moved

>  <fragmenstein_mode>  (878) 
expansion

>  <fragmenstein_error>  (878) 


$$$$
C13538-P122
     RDKit          3D

 34 36  0  0  0  0  0  0  0  0999 V2000
    0.4607   -9.1395   27.8795 O   0  0  0  0  0  0  0  0  0  0  0  0
   -0.4726   -8.0389   28.0155 S   0  0  0  0  0  0  0  0  0  0  0  0
   -0.3598   -7.1089   29.1152 O   0  0  0  0  0  0  0  0  0  0  0  0
   -2.0821   -8.8153   28.1747 N   0  0  0  0  0  0  0  0  0  0  0  0
   -2.2161   -9.7192   29.4948 C   0  0  0  0  0  0  0  0  0  0  0  0
   -3.6186  -10.4074   29.9182 C   0  0  0  0  0  0  0  0  0  0  0  0
   -4.1167  -11.7568   29.5874 N   0  0  0  0  0  0  0  0  0  0  0  0
   -4.0827  -12.9273   30.3521 C   0  0  0  0  0  0  0  0  0  0  0  0
   -5.0522  -13.7842   29.8523 C   0  0  0  0  0  0  0  0  0  0  0  0
   -5.4898  -15.1350   30.2053 C   0  0  0  0  0  0  0  0  0  0  0  0
   -5.1560  -15.8724   31.3645 C   0  0  0  0  0  0  0  0  0  0  0  0
   -5.8512  -17.0584   31.2806 C   0  0  0  0  0  0  0  0  0  0  0  0
   -6.5705  -17.1083   30.1296 O   0  0  0  0  0  0  0  0  0  0  0  0
   -6.3382  -15.9453   29.4776 C   0  0  0  0  0  0  0  0  0  0  0  0
   -5.6695  -13.0289   28.8467 C   0  0  0  0  0  0  0  0  0  0  0  0
   -5.1008  -11.8382   28.6615 N   0  0  0  0  0  0  0  0  0  0  0  0
   -0.1470   -7.0192   26.5653 C   0  0  0  0  0  0  0  0  0  0  0  0
   -0.8091   -6.0786   25.7915 C   0  0  0  0  0  0  0  0  0  0  0  0
    0.1303   -5.5956   24.8457 C   0  0  0  0  0  0  0  0  0  0  0  0
    1.3267   -6.1530   25.0052 N   0  0  0  0  0  0  0  0  0  0  0  0
    1.1336   -6.9797   26.0528 N   0  0  0  0  0  0  0  0  0  0  0  0
   -2.2604   -9.3965   27.3581 H   0  0  0  0  0  0  0  0  0  0  0  0
   -2.0025   -9.0052   30.3025 H   0  0  0  0  0  0  0  0  0  0  0  0
   -1.4097  -10.4438   29.4987 H   0  0  0  0  0  0  0  0  0  0  0  0
   -4.4145   -9.7105   29.6235 H   0  0  0  0  0  0  0  0  0  0  0  0
   -3.6154  -10.4100   31.0175 H   0  0  0  0  0  0  0  0  0  0  0  0
   -3.3842  -13.0233   31.1709 H   0  0  0  0  0  0  0  0  0  0  0  0
   -4.5118  -15.5756   32.1795 H   0  0  0  0  0  0  0  0  0  0  0  0
   -5.9317  -17.9243   31.9247 H   0  0  0  0  0  0  0  0  0  0  0  0
   -6.8449  -15.8378   28.5297 H   0  0  0  0  0  0  0  0  0  0  0  0
   -6.5123  -13.2902   28.2196 H   0  0  0  0  0  0  0  0  0  0  0  0
   -1.8327   -5.7576   25.9157 H   0  0  0  0  0  0  0  0  0  0  0  0
   -0.0121   -4.8560   24.0674 H   0  0  0  0  0  0  0  0  0  0  0  0
    1.9146   -7.5556   26.3598 H   0  0  0  0  0  0  0  0  0  0  0  0
  1  2  2  0
  2  3  2  0
  2  4  1  0
  4  5  1  0
  5  6  1  0
  6  7  1  0
  7  8  1  0
  8  9  2  0
  9 10  1  0
 10 11  1  0
 11 12  2  0
 12 13  1  0
 13 14  1  0
  9 15  1  0
 15 16  2  0
  2 17  1  0
 17 18  2  0
 18 19  1  0
 19 20  2  0
 20 21  1  0
 16  7  1  0
 21 17  1  0
 14 10  2  0
  4 22  1  0
  5 23  1  0
  5 24  1  0
  6 25  1  0
  6 26  1  0
  8 27  1  0
 11 28  1  0
 12 29  1  0
 14 30  1  0
 15 31  1  0
 18 32  1  0
 19 33  1  0
 21 34  1  0
M  END
>  <Energy>  (879) 
-41.124097133433743

>  <compound_id>  (879) 
13538

>  <target_id>  (879) 
1

>  <reference_id>  (879) 
122

>  <inspiration_ids>  (879) 
[96, 122]

>  <energy_score>  (879) 
-7.55027306415252

>  <distance_score>  (879) 
13.506093421677383

>  <path>  (879) 
/opt/xchem-fragalysis-2/maxwin/BulkDock/SCRATCH/511016/C13538-P122/C13538-P122.minimised.mol

>  <scratch_subdir>  (879) 
/opt/xchem-fragalysis-2/maxwin/BulkDock/SCRATCH/511016/C13538-P122

>  <fragmenstein_runtime>  (879) 
17.027601957321167

>  <fragmenstein_outcome>  (879) 
too moved

>  <fragmenstein_mode>  (879) 
expansion

>  <fragmenstein_error>  (879) 


$$$$
C13539-P96
     RDKit          3D

 40 41  0  0  0  0  0  0  0  0999 V2000
   -4.6458  -18.7998   18.6828 C   0  0  0  0  0  0  0  0  0  0  0  0
   -5.2461  -17.4771   18.6103 N   0  0  0  0  0  0  0  0  0  0  0  0
   -3.6277  -16.9805   19.0407 C   0  0  0  0  0  0  0  0  0  0  0  0
   -2.3997  -16.2497   18.4195 C   0  0  0  0  0  0  0  0  0  0  0  0
   -2.1711  -17.3974   17.5369 O   0  0  0  0  0  0  0  0  0  0  0  0
   -0.6861  -15.9624   19.0625 C   0  0  0  0  0  0  0  0  0  0  0  0
    0.3111  -14.5474   19.3446 N   0  0  0  0  0  0  0  0  0  0  0  0
    1.5032  -13.6767   18.2691 C   0  0  0  0  0  0  0  0  0  0  0  0
    1.8297  -14.0308   17.1334 O   0  0  0  0  0  0  0  0  0  0  0  0
    2.4485  -12.1701   18.8294 C   0  0  0  0  0  0  0  0  0  0  0  0
    3.3871  -11.9824   17.4273 C   0  0  0  0  0  0  0  0  0  0  0  0
    4.4828  -11.2451   17.4037 N   0  0  0  0  0  0  0  0  0  0  0  0
    4.2984  -10.6142   18.4833 N   0  0  0  0  0  0  0  0  0  0  0  0
    3.1993  -11.0718   19.1543 C   0  0  0  0  0  0  0  0  0  0  0  0
   -6.4901  -17.4508   19.3903 C   0  0  0  0  0  0  0  0  0  0  0  0
   -6.6838  -17.1639   20.5511 O   0  0  0  0  0  0  0  0  0  0  0  0
   -7.7373  -17.9740   18.6437 C   0  0  0  0  0  0  0  0  0  0  0  0
   -8.5228  -18.8790   19.6232 C   0  0  0  0  0  0  0  0  0  0  0  0
   -8.8213  -20.2291   19.6531 C   0  0  0  0  0  0  0  0  0  0  0  0
   -9.5117  -20.4412   20.8703 C   0  0  0  0  0  0  0  0  0  0  0  0
   -9.6710  -19.3110   21.5638 N   0  0  0  0  0  0  0  0  0  0  0  0
   -9.0153  -18.3992   20.8204 N   0  0  0  0  0  0  0  0  0  0  0  0
   -3.8240  -18.9215   18.0337 H   0  0  0  0  0  0  0  0  0  0  0  0
   -4.5501  -19.2497   19.6712 H   0  0  0  0  0  0  0  0  0  0  0  0
   -5.3907  -19.4682   18.2240 H   0  0  0  0  0  0  0  0  0  0  0  0
   -3.8952  -16.2542   19.7904 H   0  0  0  0  0  0  0  0  0  0  0  0
   -3.0676  -17.8345   19.3538 H   0  0  0  0  0  0  0  0  0  0  0  0
   -2.7070  -15.3581   17.8796 H   0  0  0  0  0  0  0  0  0  0  0  0
   -1.4264  -17.9405   17.8756 H   0  0  0  0  0  0  0  0  0  0  0  0
   -0.0879  -16.6319   18.4799 H   0  0  0  0  0  0  0  0  0  0  0  0
   -0.7295  -16.4170   20.0484 H   0  0  0  0  0  0  0  0  0  0  0  0
    0.1548  -14.0082   20.1749 H   0  0  0  0  0  0  0  0  0  0  0  0
    3.1278  -12.6562   16.6309 H   0  0  0  0  0  0  0  0  0  0  0  0
    4.8014   -9.7576   18.6435 H   0  0  0  0  0  0  0  0  0  0  0  0
    2.8896  -10.4613   20.0024 H   0  0  0  0  0  0  0  0  0  0  0  0
   -7.4566  -18.5430   17.7534 H   0  0  0  0  0  0  0  0  0  0  0  0
   -8.3548  -17.1206   18.3465 H   0  0  0  0  0  0  0  0  0  0  0  0
   -8.5675  -20.9724   18.9104 H   0  0  0  0  0  0  0  0  0  0  0  0
   -9.9050  -21.3710   21.2640 H   0  0  0  0  0  0  0  0  0  0  0  0
   -8.8723  -17.4681   21.1999 H   0  0  0  0  0  0  0  0  0  0  0  0
  1  2  1  0
  2  3  1  0
  3  4  1  0
  4  5  1  0
  4  6  1  0
  6  7  1  0
  7  8  1  0
  8  9  2  0
  8 10  1  0
 10 11  1  0
 11 12  2  0
 12 13  1  0
 13 14  1  0
  2 15  1  0
 15 16  2  0
 15 17  1  0
 17 18  1  0
 18 19  2  0
 19 20  1  0
 20 21  2  0
 21 22  1  0
 14 10  2  0
 22 18  1  0
  1 23  1  0
  1 24  1  0
  1 25  1  0
  3 26  1  0
  3 27  1  0
  4 28  1  0
  5 29  1  0
  6 30  1  0
  6 31  1  0
  7 32  1  0
 11 33  1  0
 13 34  1  0
 14 35  1  0
 17 36  1  0
 17 37  1  0
 19 38  1  0
 20 39  1  0
 22 40  1  0
M  END
>  <Energy>  (880) 
453.19923894821068

>  <compound_id>  (880) 
13539

>  <target_id>  (880) 
1

>  <reference_id>  (880) 
96

>  <inspiration_ids>  (880) 
[96, 122]

>  <energy_score>  (880) 
372.69657011801723

>  <distance_score>  (880) 
11.543362217597737

>  <path>  (880) 
/opt/xchem-fragalysis-2/maxwin/BulkDock/SCRATCH/511016/C13539-P96/C13539-P96.minimised.mol

>  <scratch_subdir>  (880) 
/opt/xchem-fragalysis-2/maxwin/BulkDock/SCRATCH/511016/C13539-P96

>  <fragmenstein_runtime>  (880) 
23.412513494491577

>  <fragmenstein_outcome>  (880) 
too moved

>  <fragmenstein_mode>  (880) 
expansion

>  <fragmenstein_error>  (880) 


$$$$
C13539-P122
     RDKit          3D

 40 41  0  0  0  0  0  0  0  0999 V2000
   -3.1463  -11.2269   20.8280 C   0  0  0  0  0  0  0  0  0  0  0  0
   -1.8828  -12.0288   21.3661 N   0  0  0  0  0  0  0  0  0  0  0  0
   -0.9711  -10.6723   20.2850 C   0  0  0  0  0  0  0  0  0  0  0  0
    0.7784   -9.2821   20.2062 C   0  0  0  0  0  0  0  0  0  0  0  0
    0.7795   -8.5880   21.4638 O   0  0  0  0  0  0  0  0  0  0  0  0
    2.4377   -9.0376   18.7878 C   0  0  0  0  0  0  0  0  0  0  0  0
    4.5032   -8.7310   18.5305 N   0  0  0  0  0  0  0  0  0  0  0  0
    5.5665   -7.1030   18.2904 C   0  0  0  0  0  0  0  0  0  0  0  0
    4.8957   -6.1684   18.1912 O   0  0  0  0  0  0  0  0  0  0  0  0
    7.4459   -6.5113   18.3284 C   0  0  0  0  0  0  0  0  0  0  0  0
    7.2767   -5.7734   16.5999 C   0  0  0  0  0  0  0  0  0  0  0  0
    8.4702   -4.5640   16.1734 N   0  0  0  0  0  0  0  0  0  0  0  0
   10.1938   -4.8381   17.3494 N   0  0  0  0  0  0  0  0  0  0  0  0
    9.4481   -6.1213   18.8091 C   0  0  0  0  0  0  0  0  0  0  0  0
   -2.1819  -14.0195   21.1642 C   0  0  0  0  0  0  0  0  0  0  0  0
   -1.9148  -14.7797   20.2295 O   0  0  0  0  0  0  0  0  0  0  0  0
   -2.9544  -14.9488   23.0837 C   0  0  0  0  0  0  0  0  0  0  0  0
   -3.0698  -15.1133   24.8686 C   0  0  0  0  0  0  0  0  0  0  0  0
   -2.7493  -14.3508   25.9892 C   0  0  0  0  0  0  0  0  0  0  0  0
   -3.4012  -14.9558   27.0919 C   0  0  0  0  0  0  0  0  0  0  0  0
   -4.1889  -15.9578   26.7175 N   0  0  0  0  0  0  0  0  0  0  0  0
   -4.0870  -15.9329   25.3845 N   0  0  0  0  0  0  0  0  0  0  0  0
   -3.9486  -11.8927   20.5224 H   0  0  0  0  0  0  0  0  0  0  0  0
   -3.3975  -10.3942   21.4955 H   0  0  0  0  0  0  0  0  0  0  0  0
   -3.0663  -10.7802   19.8395 H   0  0  0  0  0  0  0  0  0  0  0  0
   -1.4872  -10.7531   19.2861 H   0  0  0  0  0  0  0  0  0  0  0  0
   -1.4625   -9.8388   20.8290 H   0  0  0  0  0  0  0  0  0  0  0  0
    0.1981   -8.5128   19.6374 H   0  0  0  0  0  0  0  0  0  0  0  0
    1.0182   -9.2601   22.1308 H   0  0  0  0  0  0  0  0  0  0  0  0
    2.2951   -9.7504   17.9907 H   0  0  0  0  0  0  0  0  0  0  0  0
    2.1411   -8.1332   18.2885 H   0  0  0  0  0  0  0  0  0  0  0  0
    5.1346   -9.5214   18.5255 H   0  0  0  0  0  0  0  0  0  0  0  0
    6.4253   -6.0212   16.0161 H   0  0  0  0  0  0  0  0  0  0  0  0
   10.9673   -5.1698   16.7771 H   0  0  0  0  0  0  0  0  0  0  0  0
    9.9532   -5.6770   19.6855 H   0  0  0  0  0  0  0  0  0  0  0  0
   -3.9450  -14.4740   23.5268 H   0  0  0  0  0  0  0  0  0  0  0  0
   -3.6936  -15.8505   22.9085 H   0  0  0  0  0  0  0  0  0  0  0  0
   -2.1109  -13.4801   26.0313 H   0  0  0  0  0  0  0  0  0  0  0  0
   -3.3434  -14.6858   28.1386 H   0  0  0  0  0  0  0  0  0  0  0  0
   -4.8004  -16.4330   24.8707 H   0  0  0  0  0  0  0  0  0  0  0  0
  1  2  1  0
  2  3  1  0
  3  4  1  0
  4  5  1  0
  4  6  1  0
  6  7  1  0
  7  8  1  0
  8  9  2  0
  8 10  1  0
 10 11  1  0
 11 12  2  0
 12 13  1  0
 13 14  1  0
  2 15  1  0
 15 16  2  0
 15 17  1  0
 17 18  1  0
 18 19  2  0
 19 20  1  0
 20 21  2  0
 21 22  1  0
 14 10  2  0
 22 18  1  0
  1 23  1  0
  1 24  1  0
  1 25  1  0
  3 26  1  0
  3 27  1  0
  4 28  1  0
  5 29  1  0
  6 30  1  0
  6 31  1  0
  7 32  1  0
 11 33  1  0
 13 34  1  0
 14 35  1  0
 17 36  1  0
 17 37  1  0
 19 38  1  0
 20 39  1  0
 22 40  1  0
M  END
>  <Energy>  (881) 
1987.4498144763822

>  <compound_id>  (881) 
13539

>  <target_id>  (881) 
1

>  <reference_id>  (881) 
122

>  <inspiration_ids>  (881) 
[96, 122]

>  <energy_score>  (881) 
1906.9471456461954

>  <distance_score>  (881) 
9.550878481506702

>  <path>  (881) 
/opt/xchem-fragalysis-2/maxwin/BulkDock/SCRATCH/511016/C13539-P122/C13539-P122.minimised.mol

>  <scratch_subdir>  (881) 
/opt/xchem-fragalysis-2/maxwin/BulkDock/SCRATCH/511016/C13539-P122

>  <fragmenstein_runtime>  (881) 
26.593334913253784

>  <fragmenstein_outcome>  (881) 
too moved

>  <fragmenstein_mode>  (881) 
expansion

>  <fragmenstein_error>  (881) 


$$$$
C13540-P96
     RDKit          3D

 46 47  0  0  0  0  0  0  0  0999 V2000
   10.7304   -6.8781   21.1703 C   0  0  0  0  0  0  0  0  0  0  0  0
   10.0251   -6.9849   22.5105 C   0  0  0  0  0  0  0  0  0  0  0  0
    8.6059   -7.2369   22.3578 N   0  0  0  0  0  0  0  0  0  0  0  0
    7.9817   -8.4470   22.3748 C   0  0  0  0  0  0  0  0  0  0  0  0
    6.6190   -8.2248   22.1733 C   0  0  0  0  0  0  0  0  0  0  0  0
    5.6156   -9.3199   22.0653 C   0  0  0  0  0  0  0  0  0  0  0  0
    5.8573  -10.2192   22.8336 O   0  0  0  0  0  0  0  0  0  0  0  0
    4.4586   -9.1603   21.0314 N   0  0  0  0  0  0  0  0  0  0  0  0
    2.8529  -10.3162   20.6691 C   0  0  0  0  0  0  0  0  0  0  0  0
    1.8484  -11.4502   21.9671 C   0  0  0  0  0  0  0  0  0  0  0  0
    1.0671  -10.3500   21.8625 O   0  0  0  0  0  0  0  0  0  0  0  0
    0.1792  -12.4733   22.5710 C   0  0  0  0  0  0  0  0  0  0  0  0
   -1.4823  -12.6347   22.5785 N   0  0  0  0  0  0  0  0  0  0  0  0
   -0.9811  -12.9578   21.2831 C   0  0  0  0  0  0  0  0  0  0  0  0
   -2.5298  -13.5864   23.5882 C   0  0  0  0  0  0  0  0  0  0  0  0
   -2.9423  -14.6952   23.4454 O   0  0  0  0  0  0  0  0  0  0  0  0
   -3.1782  -12.9487   24.8348 C   0  0  0  0  0  0  0  0  0  0  0  0
   -4.3228  -13.9196   25.4007 C   0  0  0  0  0  0  0  0  0  0  0  0
   -4.2565  -15.1867   25.9682 C   0  0  0  0  0  0  0  0  0  0  0  0
   -5.5842  -15.5633   26.2397 C   0  0  0  0  0  0  0  0  0  0  0  0
   -6.4512  -14.6185   25.8733 N   0  0  0  0  0  0  0  0  0  0  0  0
   -5.6681  -13.6522   25.3432 N   0  0  0  0  0  0  0  0  0  0  0  0
    6.5518   -6.8137   22.2246 C   0  0  0  0  0  0  0  0  0  0  0  0
    7.7529   -6.2169   22.1680 N   0  0  0  0  0  0  0  0  0  0  0  0
   10.3105   -6.0678   20.5645 H   0  0  0  0  0  0  0  0  0  0  0  0
   11.7965   -6.6797   21.3161 H   0  0  0  0  0  0  0  0  0  0  0  0
   10.6310   -7.8073   20.5994 H   0  0  0  0  0  0  0  0  0  0  0  0
   10.4474   -7.8042   23.1026 H   0  0  0  0  0  0  0  0  0  0  0  0
   10.1380   -6.0593   23.0859 H   0  0  0  0  0  0  0  0  0  0  0  0
    8.5299   -9.3740   22.4857 H   0  0  0  0  0  0  0  0  0  0  0  0
    4.5075   -8.2666   20.6213 H   0  0  0  0  0  0  0  0  0  0  0  0
    2.2970   -9.4246   20.5080 H   0  0  0  0  0  0  0  0  0  0  0  0
    2.9637  -10.7938   19.6845 H   0  0  0  0  0  0  0  0  0  0  0  0
    2.1971  -12.3296   21.4132 H   0  0  0  0  0  0  0  0  0  0  0  0
    0.4163  -10.3077   21.1483 H   0  0  0  0  0  0  0  0  0  0  0  0
    0.0978  -13.2773   23.0747 H   0  0  0  0  0  0  0  0  0  0  0  0
    0.3281  -11.8773   23.6027 H   0  0  0  0  0  0  0  0  0  0  0  0
   -1.7239  -13.6724   20.9717 H   0  0  0  0  0  0  0  0  0  0  0  0
   -1.0720  -11.9723   20.8447 H   0  0  0  0  0  0  0  0  0  0  0  0
   -0.2510  -13.5569   20.7090 H   0  0  0  0  0  0  0  0  0  0  0  0
   -3.6956  -12.0475   24.5016 H   0  0  0  0  0  0  0  0  0  0  0  0
   -2.5096  -12.9271   25.6886 H   0  0  0  0  0  0  0  0  0  0  0  0
   -3.3610  -15.7717   26.1152 H   0  0  0  0  0  0  0  0  0  0  0  0
   -5.9521  -16.4817   26.6775 H   0  0  0  0  0  0  0  0  0  0  0  0
   -6.1232  -12.8310   24.9615 H   0  0  0  0  0  0  0  0  0  0  0  0
    5.6723   -6.1874   22.2263 H   0  0  0  0  0  0  0  0  0  0  0  0
  1  2  1  0
  2  3  1  0
  3  4  1  0
  4  5  2  0
  5  6  1  0
  6  7  2  0
  6  8  1  0
  8  9  1  0
  9 10  1  0
 10 11  1  0
 10 12  1  0
 12 13  1  0
 13 14  1  0
 13 15  1  0
 15 16  2  0
 15 17  1  0
 17 18  1  0
 18 19  2  0
 19 20  1  0
 20 21  2  0
 21 22  1  0
  5 23  1  0
 23 24  2  0
 24  3  1  0
 22 18  1  0
  1 25  1  0
  1 26  1  0
  1 27  1  0
  2 28  1  0
  2 29  1  0
  4 30  1  0
  8 31  1  0
  9 32  1  0
  9 33  1  0
 10 34  1  0
 11 35  1  0
 12 36  1  0
 12 37  1  0
 14 38  1  0
 14 39  1  0
 14 40  1  0
 17 41  1  0
 17 42  1  0
 19 43  1  0
 20 44  1  0
 22 45  1  0
 23 46  1  0
M  END
>  <Energy>  (882) 
620.65456327775212

>  <compound_id>  (882) 
13540

>  <target_id>  (882) 
1

>  <reference_id>  (882) 
96

>  <inspiration_ids>  (882) 
[96, 122]

>  <energy_score>  (882) 
554.961851379953

>  <distance_score>  (882) 
10.871341476967068

>  <path>  (882) 
/opt/xchem-fragalysis-2/maxwin/BulkDock/SCRATCH/511016/C13540-P96/C13540-P96.minimised.mol

>  <scratch_subdir>  (882) 
/opt/xchem-fragalysis-2/maxwin/BulkDock/SCRATCH/511016/C13540-P96

>  <fragmenstein_runtime>  (882) 
25.789061784744263

>  <fragmenstein_outcome>  (882) 
too moved

>  <fragmenstein_mode>  (882) 
expansion

>  <fragmenstein_error>  (882) 


$$$$
C13540-P122
     RDKit          3D

 46 47  0  0  0  0  0  0  0  0999 V2000
   12.3744   -4.5042   21.1150 C   0  0  0  0  0  0  0  0  0  0  0  0
   11.5043   -5.4872   20.2662 C   0  0  0  0  0  0  0  0  0  0  0  0
    9.7729   -5.7033   19.8696 N   0  0  0  0  0  0  0  0  0  0  0  0
    8.2199   -4.7460   20.3967 C   0  0  0  0  0  0  0  0  0  0  0  0
    7.0113   -6.0046   20.9530 C   0  0  0  0  0  0  0  0  0  0  0  0
    6.4651   -6.7530   22.5514 C   0  0  0  0  0  0  0  0  0  0  0  0
    6.9650   -6.5500   23.5993 O   0  0  0  0  0  0  0  0  0  0  0  0
    5.3869   -7.6916   22.1659 N   0  0  0  0  0  0  0  0  0  0  0  0
    4.4705   -9.0817   23.1690 C   0  0  0  0  0  0  0  0  0  0  0  0
    3.8211  -11.0107   22.5420 C   0  0  0  0  0  0  0  0  0  0  0  0
    4.6979  -11.5028   21.4327 O   0  0  0  0  0  0  0  0  0  0  0  0
    2.1415  -12.0577   23.1020 C   0  0  0  0  0  0  0  0  0  0  0  0
    1.3093  -13.6827   23.9964 N   0  0  0  0  0  0  0  0  0  0  0  0
    2.1859  -13.0930   24.7979 C   0  0  0  0  0  0  0  0  0  0  0  0
   -0.5036  -14.1217   24.2918 C   0  0  0  0  0  0  0  0  0  0  0  0
   -1.1149  -13.7802   25.3224 O   0  0  0  0  0  0  0  0  0  0  0  0
   -1.3530  -14.9745   23.5151 C   0  0  0  0  0  0  0  0  0  0  0  0
   -3.0360  -15.3128   24.4044 C   0  0  0  0  0  0  0  0  0  0  0  0
   -3.3537  -15.3500   25.7774 C   0  0  0  0  0  0  0  0  0  0  0  0
   -4.6799  -15.7979   25.9084 C   0  0  0  0  0  0  0  0  0  0  0  0
   -5.2393  -15.9898   24.7222 N   0  0  0  0  0  0  0  0  0  0  0  0
   -4.2817  -15.5948   23.8586 N   0  0  0  0  0  0  0  0  0  0  0  0
    7.3994   -7.2769   19.6293 C   0  0  0  0  0  0  0  0  0  0  0  0
    9.2299   -7.5301   19.7961 N   0  0  0  0  0  0  0  0  0  0  0  0
   12.4221   -3.5118   20.6783 H   0  0  0  0  0  0  0  0  0  0  0  0
   13.4095   -4.8697   21.0553 H   0  0  0  0  0  0  0  0  0  0  0  0
   12.1684   -4.4529   22.1860 H   0  0  0  0  0  0  0  0  0  0  0  0
   11.8259   -6.4801   20.6073 H   0  0  0  0  0  0  0  0  0  0  0  0
   11.9288   -5.3056   19.2780 H   0  0  0  0  0  0  0  0  0  0  0  0
    8.4760   -3.8715   20.9192 H   0  0  0  0  0  0  0  0  0  0  0  0
    5.2790   -7.6785   21.2024 H   0  0  0  0  0  0  0  0  0  0  0  0
    3.5247   -8.3758   22.9809 H   0  0  0  0  0  0  0  0  0  0  0  0
    5.0895   -9.1313   24.2277 H   0  0  0  0  0  0  0  0  0  0  0  0
    4.1805  -11.9206   22.9171 H   0  0  0  0  0  0  0  0  0  0  0  0
    4.2672  -12.2904   21.0167 H   0  0  0  0  0  0  0  0  0  0  0  0
    2.2863  -11.5412   23.9634 H   0  0  0  0  0  0  0  0  0  0  0  0
    1.2111  -11.6239   22.6702 H   0  0  0  0  0  0  0  0  0  0  0  0
    1.6715  -12.2281   25.2394 H   0  0  0  0  0  0  0  0  0  0  0  0
    1.9895  -13.5594   25.8104 H   0  0  0  0  0  0  0  0  0  0  0  0
    3.2034  -13.3453   24.4590 H   0  0  0  0  0  0  0  0  0  0  0  0
   -1.0324  -14.9358   22.4822 H   0  0  0  0  0  0  0  0  0  0  0  0
   -1.2314  -15.7052   24.2593 H   0  0  0  0  0  0  0  0  0  0  0  0
   -2.7115  -15.1051   26.6085 H   0  0  0  0  0  0  0  0  0  0  0  0
   -5.2500  -15.9790   26.8100 H   0  0  0  0  0  0  0  0  0  0  0  0
   -4.5392  -15.6045   22.8824 H   0  0  0  0  0  0  0  0  0  0  0  0
    7.0119   -6.8897   18.6742 H   0  0  0  0  0  0  0  0  0  0  0  0
  1  2  1  0
  2  3  1  0
  3  4  1  0
  4  5  2  0
  5  6  1  0
  6  7  2  0
  6  8  1  0
  8  9  1  0
  9 10  1  0
 10 11  1  0
 10 12  1  0
 12 13  1  0
 13 14  1  0
 13 15  1  0
 15 16  2  0
 15 17  1  0
 17 18  1  0
 18 19  2  0
 19 20  1  0
 20 21  2  0
 21 22  1  0
  5 23  1  0
 23 24  2  0
 24  3  1  0
 22 18  1  0
  1 25  1  0
  1 26  1  0
  1 27  1  0
  2 28  1  0
  2 29  1  0
  4 30  1  0
  8 31  1  0
  9 32  1  0
  9 33  1  0
 10 34  1  0
 11 35  1  0
 12 36  1  0
 12 37  1  0
 14 38  1  0
 14 39  1  0
 14 40  1  0
 17 41  1  0
 17 42  1  0
 19 43  1  0
 20 44  1  0
 22 45  1  0
 23 46  1  0
M  END
>  <Energy>  (883) 
1276.7972126760719

>  <compound_id>  (883) 
13540

>  <target_id>  (883) 
1

>  <reference_id>  (883) 
122

>  <inspiration_ids>  (883) 
[96, 122]

>  <energy_score>  (883) 
1211.1045007782745

>  <distance_score>  (883) 
9.855687114739005

>  <path>  (883) 
/opt/xchem-fragalysis-2/maxwin/BulkDock/SCRATCH/511016/C13540-P122/C13540-P122.minimised.mol

>  <scratch_subdir>  (883) 
/opt/xchem-fragalysis-2/maxwin/BulkDock/SCRATCH/511016/C13540-P122

>  <fragmenstein_runtime>  (883) 
56.06321573257446

>  <fragmenstein_outcome>  (883) 
too moved

>  <fragmenstein_mode>  (883) 
expansion

>  <fragmenstein_error>  (883) 


$$$$
C39124-P13
     RDKit          3D

 53 56  0  0  0  0  0  0  0  0999 V2000
  -10.1787  -20.0352   35.1391 O   0  0  0  0  0  0  0  0  0  0  0  0
   -9.5464  -20.1378   34.0606 C   0  0  0  0  0  0  0  0  0  0  0  0
   -8.4458  -18.7721   33.8943 C   0  0  0  0  0  0  0  0  0  0  0  0
   -8.3162  -17.1208   33.4537 O   0  0  0  0  0  0  0  0  0  0  0  0
   -8.9279  -15.6886   33.8570 C   0  0  0  0  0  0  0  0  0  0  0  0
   -8.2112  -14.0058   33.4456 C   0  0  0  0  0  0  0  0  0  0  0  0
   -6.9504  -13.3187   32.7264 C   0  0  0  0  0  0  0  0  0  0  0  0
   -6.7503  -11.6831   32.8670 C   0  0  0  0  0  0  0  0  0  0  0  0
   -5.6428  -10.2768   33.8136 C   0  0  0  0  0  0  0  0  0  0  0  0
   -5.3814  -10.3319   35.4761 C   0  0  0  0  0  0  0  0  0  0  0  0
   -4.4661   -9.7018   36.3963 C   0  0  0  0  0  0  0  0  0  0  0  0
   -3.5358   -8.8955   35.8700 C   0  0  0  0  0  0  0  0  0  0  0  0
   -3.6488   -8.6756   34.5437 C   0  0  0  0  0  0  0  0  0  0  0  0
   -4.8418   -9.0470   33.5855 C   0  0  0  0  0  0  0  0  0  0  0  0
   -2.5039   -7.9742   34.1003 O   0  0  0  0  0  0  0  0  0  0  0  0
   -1.8723   -7.6332   35.3435 C   0  0  0  0  0  0  0  0  0  0  0  0
   -2.5250   -8.2394   36.4716 O   0  0  0  0  0  0  0  0  0  0  0  0
   -8.2329  -11.7320   33.5235 O   0  0  0  0  0  0  0  0  0  0  0  0
   -8.8759  -12.9166   33.8528 N   0  0  0  0  0  0  0  0  0  0  0  0
   -9.7306  -21.3799   32.6435 N   0  0  0  0  0  0  0  0  0  0  0  0
  -10.8723  -22.6345   32.3419 C   0  0  0  0  0  0  0  0  0  0  0  0
  -11.3011  -21.6857   30.7456 C   0  0  0  0  0  0  0  0  0  0  0  0
  -11.7402  -22.1427   29.3614 C   0  0  0  0  0  0  0  0  0  0  0  0
  -10.9953  -22.3968   28.1360 N   0  0  0  0  0  0  0  0  0  0  0  0
  -10.2593  -23.6401   27.8597 C   0  0  0  0  0  0  0  0  0  0  0  0
  -10.8427  -24.3157   26.6098 C   0  0  0  0  0  0  0  0  0  0  0  0
  -12.1817  -23.6572   26.4382 C   0  0  0  0  0  0  0  0  0  0  0  0
  -12.0050  -22.3148   27.0699 C   0  0  0  0  0  0  0  0  0  0  0  0
   -8.5941  -18.5843   34.9704 H   0  0  0  0  0  0  0  0  0  0  0  0
   -7.4647  -19.2001   33.6576 H   0  0  0  0  0  0  0  0  0  0  0  0
   -9.9312  -15.6263   33.4467 H   0  0  0  0  0  0  0  0  0  0  0  0
   -8.9594  -15.6850   34.9531 H   0  0  0  0  0  0  0  0  0  0  0  0
   -6.3607  -13.9745   32.1057 H   0  0  0  0  0  0  0  0  0  0  0  0
   -6.1694  -10.7560   36.1136 H   0  0  0  0  0  0  0  0  0  0  0  0
   -4.5311   -9.8814   37.4631 H   0  0  0  0  0  0  0  0  0  0  0  0
   -4.7197   -8.6857   32.5466 H   0  0  0  0  0  0  0  0  0  0  0  0
   -0.8276   -7.9628   35.3170 H   0  0  0  0  0  0  0  0  0  0  0  0
   -1.8815   -6.5451   35.4691 H   0  0  0  0  0  0  0  0  0  0  0  0
   -9.0669  -21.2607   32.0134 H   0  0  0  0  0  0  0  0  0  0  0  0
  -10.9402  -23.5351   31.7063 H   0  0  0  0  0  0  0  0  0  0  0  0
  -10.0397  -23.3600   32.6084 H   0  0  0  0  0  0  0  0  0  0  0  0
  -12.1045  -21.0092   31.0447 H   0  0  0  0  0  0  0  0  0  0  0  0
  -10.6250  -20.9190   30.5173 H   0  0  0  0  0  0  0  0  0  0  0  0
  -12.3566  -21.2654   29.1084 H   0  0  0  0  0  0  0  0  0  0  0  0
  -12.4454  -22.9178   29.4736 H   0  0  0  0  0  0  0  0  0  0  0  0
  -10.1508  -24.3049   28.6934 H   0  0  0  0  0  0  0  0  0  0  0  0
   -9.2011  -23.4397   27.6785 H   0  0  0  0  0  0  0  0  0  0  0  0
  -10.2263  -24.1659   25.7308 H   0  0  0  0  0  0  0  0  0  0  0  0
  -10.9136  -25.4042   26.6734 H   0  0  0  0  0  0  0  0  0  0  0  0
  -12.5367  -23.5053   25.4227 H   0  0  0  0  0  0  0  0  0  0  0  0
  -12.9338  -24.2586   26.9447 H   0  0  0  0  0  0  0  0  0  0  0  0
  -11.7955  -21.5283   26.3582 H   0  0  0  0  0  0  0  0  0  0  0  0
  -12.9579  -21.9954   27.4240 H   0  0  0  0  0  0  0  0  0  0  0  0
  1  2  2  0
  2  3  1  0
  3  4  1  0
  4  5  1  0
  5  6  1  0
  6  7  1  0
  7  8  2  0
  8  9  1  0
  9 10  2  0
 10 11  1  0
 11 12  2  0
 12 13  1  0
 13 14  2  0
 13 15  1  0
 15 16  1  0
 16 17  1  0
  8 18  1  0
 18 19  1  0
  2 20  1  0
 20 21  1  0
 21 22  1  0
 22 23  1  0
 23 24  1  0
 24 25  1  0
 25 26  1  0
 26 27  1  0
 27 28  1  0
 19  6  2  0
 28 24  1  0
 14  9  1  0
 17 12  1  0
  3 29  1  0
  3 30  1  0
  5 31  1  0
  5 32  1  0
  7 33  1  0
 10 34  1  0
 11 35  1  0
 14 36  1  0
 16 37  1  0
 16 38  1  0
 20 39  1  0
 21 40  1  0
 21 41  1  0
 22 42  1  0
 22 43  1  0
 23 44  1  0
 23 45  1  0
 25 46  1  0
 25 47  1  0
 26 48  1  0
 26 49  1  0
 27 50  1  0
 27 51  1  0
 28 52  1  0
 28 53  1  0
M  END
>  <Energy>  (884) 
735.82952243485568

>  <compound_id>  (884) 
39124

>  <target_id>  (884) 
1

>  <reference_id>  (884) 
13

>  <inspiration_ids>  (884) 
[13, 3]

>  <energy_score>  (884) 
625.8675594079383

>  <distance_score>  (884) 
8.644032486249536

>  <path>  (884) 
/opt/xchem-fragalysis-2/maxwin/BulkDock/SCRATCH/511016/C39124-P13/C39124-P13.minimised.mol

>  <scratch_subdir>  (884) 
/opt/xchem-fragalysis-2/maxwin/BulkDock/SCRATCH/511016/C39124-P13

>  <fragmenstein_runtime>  (884) 
39.18190956115723

>  <fragmenstein_outcome>  (884) 
too moved

>  <fragmenstein_mode>  (884) 
expansion

>  <fragmenstein_error>  (884) 


$$$$
C39124-P3
     RDKit          3D

 53 56  0  0  0  0  0  0  0  0999 V2000
   -7.2625  -19.2932   34.8264 O   0  0  0  0  0  0  0  0  0  0  0  0
   -7.6014  -18.9014   33.2790 C   0  0  0  0  0  0  0  0  0  0  0  0
   -7.2377  -17.0453   32.7926 C   0  0  0  0  0  0  0  0  0  0  0  0
   -6.8393  -15.4741   32.7249 O   0  0  0  0  0  0  0  0  0  0  0  0
   -7.6810  -14.2661   32.1462 C   0  0  0  0  0  0  0  0  0  0  0  0
   -7.0437  -12.9587   31.0694 C   0  0  0  0  0  0  0  0  0  0  0  0
   -7.8654  -11.6915   30.0702 C   0  0  0  0  0  0  0  0  0  0  0  0
   -6.8650  -11.1824   28.7618 C   0  0  0  0  0  0  0  0  0  0  0  0
   -5.8457   -9.6725   28.1267 C   0  0  0  0  0  0  0  0  0  0  0  0
   -4.6048   -9.5320   27.3895 C   0  0  0  0  0  0  0  0  0  0  0  0
   -3.5197   -8.3036   27.4682 C   0  0  0  0  0  0  0  0  0  0  0  0
   -3.7367   -7.0494   28.2069 C   0  0  0  0  0  0  0  0  0  0  0  0
   -4.9850   -6.9113   28.7842 C   0  0  0  0  0  0  0  0  0  0  0  0
   -6.0374   -8.2593   28.6580 C   0  0  0  0  0  0  0  0  0  0  0  0
   -5.0521   -5.7329   29.4487 O   0  0  0  0  0  0  0  0  0  0  0  0
   -3.6411   -5.3143   29.3836 C   0  0  0  0  0  0  0  0  0  0  0  0
   -2.9191   -5.9973   28.3538 O   0  0  0  0  0  0  0  0  0  0  0  0
   -6.1072  -12.5323   28.8247 O   0  0  0  0  0  0  0  0  0  0  0  0
   -5.9866  -13.2572   30.2694 N   0  0  0  0  0  0  0  0  0  0  0  0
   -8.0649  -19.8283   32.9015 N   0  0  0  0  0  0  0  0  0  0  0  0
   -8.5685  -21.2684   33.3338 C   0  0  0  0  0  0  0  0  0  0  0  0
   -9.9356  -21.6487   32.6498 C   0  0  0  0  0  0  0  0  0  0  0  0
   -9.7737  -22.7912   31.6234 C   0  0  0  0  0  0  0  0  0  0  0  0
  -10.9222  -22.9228   30.7056 N   0  0  0  0  0  0  0  0  0  0  0  0
  -11.0816  -24.2835   30.2052 C   0  0  0  0  0  0  0  0  0  0  0  0
  -11.8762  -24.1274   28.9200 C   0  0  0  0  0  0  0  0  0  0  0  0
  -11.4856  -22.7646   28.3770 C   0  0  0  0  0  0  0  0  0  0  0  0
  -10.8346  -22.0288   29.5424 C   0  0  0  0  0  0  0  0  0  0  0  0
   -7.4838  -16.7288   33.7548 H   0  0  0  0  0  0  0  0  0  0  0  0
   -6.1925  -17.2898   32.5809 H   0  0  0  0  0  0  0  0  0  0  0  0
   -8.5764  -14.6628   31.6886 H   0  0  0  0  0  0  0  0  0  0  0  0
   -7.9611  -13.6980   33.0410 H   0  0  0  0  0  0  0  0  0  0  0  0
   -8.9482  -11.7582   30.1189 H   0  0  0  0  0  0  0  0  0  0  0  0
   -4.0845  -10.3912   27.0487 H   0  0  0  0  0  0  0  0  0  0  0  0
   -2.5724   -8.3989   26.9635 H   0  0  0  0  0  0  0  0  0  0  0  0
   -6.8128   -8.2873   29.3659 H   0  0  0  0  0  0  0  0  0  0  0  0
   -3.5159   -4.2485   29.1851 H   0  0  0  0  0  0  0  0  0  0  0  0
   -3.1743   -5.5173   30.3575 H   0  0  0  0  0  0  0  0  0  0  0  0
   -8.4378  -20.4201   32.2066 H   0  0  0  0  0  0  0  0  0  0  0  0
   -7.7823  -21.9756   33.0233 H   0  0  0  0  0  0  0  0  0  0  0  0
   -8.6386  -21.3725   34.4125 H   0  0  0  0  0  0  0  0  0  0  0  0
  -10.6240  -21.9691   33.4360 H   0  0  0  0  0  0  0  0  0  0  0  0
  -10.3917  -20.7655   32.1843 H   0  0  0  0  0  0  0  0  0  0  0  0
   -8.8411  -22.6780   31.0567 H   0  0  0  0  0  0  0  0  0  0  0  0
   -9.6589  -23.7161   32.2050 H   0  0  0  0  0  0  0  0  0  0  0  0
  -11.6126  -24.9231   30.9176 H   0  0  0  0  0  0  0  0  0  0  0  0
  -10.1183  -24.7570   30.0476 H   0  0  0  0  0  0  0  0  0  0  0  0
  -11.6700  -24.9303   28.2057 H   0  0  0  0  0  0  0  0  0  0  0  0
  -12.9508  -24.1478   29.1332 H   0  0  0  0  0  0  0  0  0  0  0  0
  -10.7757  -22.8715   27.5505 H   0  0  0  0  0  0  0  0  0  0  0  0
  -12.3515  -22.2288   27.9795 H   0  0  0  0  0  0  0  0  0  0  0  0
   -9.8040  -21.7943   29.2675 H   0  0  0  0  0  0  0  0  0  0  0  0
  -11.3464  -21.0834   29.7493 H   0  0  0  0  0  0  0  0  0  0  0  0
  1  2  2  0
  2  3  1  0
  3  4  1  0
  4  5  1  0
  5  6  1  0
  6  7  1  0
  7  8  2  0
  8  9  1  0
  9 10  2  0
 10 11  1  0
 11 12  2  0
 12 13  1  0
 13 14  2  0
 13 15  1  0
 15 16  1  0
 16 17  1  0
  8 18  1  0
 18 19  1  0
  2 20  1  0
 20 21  1  0
 21 22  1  0
 22 23  1  0
 23 24  1  0
 24 25  1  0
 25 26  1  0
 26 27  1  0
 27 28  1  0
 19  6  2  0
 28 24  1  0
 14  9  1  0
 17 12  1  0
  3 29  1  0
  3 30  1  0
  5 31  1  0
  5 32  1  0
  7 33  1  0
 10 34  1  0
 11 35  1  0
 14 36  1  0
 16 37  1  0
 16 38  1  0
 20 39  1  0
 21 40  1  0
 21 41  1  0
 22 42  1  0
 22 43  1  0
 23 44  1  0
 23 45  1  0
 25 46  1  0
 25 47  1  0
 26 48  1  0
 26 49  1  0
 27 50  1  0
 27 51  1  0
 28 52  1  0
 28 53  1  0
M  END
>  <Energy>  (885) 
719.7022451519091

>  <compound_id>  (885) 
39124

>  <target_id>  (885) 
1

>  <reference_id>  (885) 
3

>  <inspiration_ids>  (885) 
[13, 3]

>  <energy_score>  (885) 
609.7402821250071

>  <distance_score>  (885) 
6.785271781350585

>  <path>  (885) 
/opt/xchem-fragalysis-2/maxwin/BulkDock/SCRATCH/511016/C39124-P3/C39124-P3.minimised.mol

>  <scratch_subdir>  (885) 
/opt/xchem-fragalysis-2/maxwin/BulkDock/SCRATCH/511016/C39124-P3

>  <fragmenstein_runtime>  (885) 
19.924751043319702

>  <fragmenstein_outcome>  (885) 
too moved

>  <fragmenstein_mode>  (885) 
expansion

>  <fragmenstein_error>  (885) 


$$$$
C39126-P13
     RDKit          3D

 50 53  0  0  0  0  0  0  0  0999 V2000
   -9.3052  -22.9946   32.7700 O   0  0  0  0  0  0  0  0  0  0  0  0
   -9.4208  -21.7289   32.5593 C   0  0  0  0  0  0  0  0  0  0  0  0
   -7.9886  -20.5535   33.6381 C   0  0  0  0  0  0  0  0  0  0  0  0
   -6.7673  -19.1927   33.0374 O   0  0  0  0  0  0  0  0  0  0  0  0
   -6.5247  -17.4280   32.2342 C   0  0  0  0  0  0  0  0  0  0  0  0
   -5.1866  -15.9052   31.5667 C   0  0  0  0  0  0  0  0  0  0  0  0
   -3.9560  -15.4012   30.2971 C   0  0  0  0  0  0  0  0  0  0  0  0
   -2.8813  -14.0319   29.8858 C   0  0  0  0  0  0  0  0  0  0  0  0
   -2.5149  -12.0538   29.5813 C   0  0  0  0  0  0  0  0  0  0  0  0
   -1.6419  -10.7636   30.5426 C   0  0  0  0  0  0  0  0  0  0  0  0
   -1.0585   -9.4101   30.9799 C   0  0  0  0  0  0  0  0  0  0  0  0
   -0.5649   -8.7763   29.9756 C   0  0  0  0  0  0  0  0  0  0  0  0
   -0.7835   -9.6122   28.9094 C   0  0  0  0  0  0  0  0  0  0  0  0
   -1.9074  -11.0759   28.6798 C   0  0  0  0  0  0  0  0  0  0  0  0
    0.3452   -9.2527   28.1958 O   0  0  0  0  0  0  0  0  0  0  0  0
    1.2508   -8.5499   29.0784 C   0  0  0  0  0  0  0  0  0  0  0  0
    0.4464   -7.8922   30.0323 O   0  0  0  0  0  0  0  0  0  0  0  0
   -2.8158  -14.6902   31.5621 O   0  0  0  0  0  0  0  0  0  0  0  0
   -3.6155  -16.1374   31.6951 N   0  0  0  0  0  0  0  0  0  0  0  0
  -10.5723  -21.0102   31.3700 N   0  0  0  0  0  0  0  0  0  0  0  0
  -11.4699  -21.6305   30.3983 C   0  0  0  0  0  0  0  0  0  0  0  0
  -11.4499  -21.4831   28.9144 C   0  0  0  0  0  0  0  0  0  0  0  0
  -11.1932  -22.2271   27.7033 N   0  0  0  0  0  0  0  0  0  0  0  0
  -11.0746  -23.6179   27.7789 C   0  0  0  0  0  0  0  0  0  0  0  0
  -11.2777  -24.1920   26.3968 C   0  0  0  0  0  0  0  0  0  0  0  0
  -12.3040  -23.2470   25.8137 C   0  0  0  0  0  0  0  0  0  0  0  0
  -12.2283  -22.0565   26.7168 C   0  0  0  0  0  0  0  0  0  0  0  0
   -8.5197  -19.9886   34.4191 H   0  0  0  0  0  0  0  0  0  0  0  0
   -7.2494  -21.2371   34.0700 H   0  0  0  0  0  0  0  0  0  0  0  0
   -6.9261  -17.8305   31.3002 H   0  0  0  0  0  0  0  0  0  0  0  0
   -7.3996  -17.0717   32.7307 H   0  0  0  0  0  0  0  0  0  0  0  0
   -3.7218  -16.2202   29.5882 H   0  0  0  0  0  0  0  0  0  0  0  0
   -1.2429  -11.2306   31.3939 H   0  0  0  0  0  0  0  0  0  0  0  0
   -0.8064   -9.1685   32.0017 H   0  0  0  0  0  0  0  0  0  0  0  0
   -2.0844  -11.2693   27.5898 H   0  0  0  0  0  0  0  0  0  0  0  0
    2.0026   -9.1995   29.5248 H   0  0  0  0  0  0  0  0  0  0  0  0
    1.8863   -7.8439   28.5244 H   0  0  0  0  0  0  0  0  0  0  0  0
  -10.5389  -20.0005   31.4548 H   0  0  0  0  0  0  0  0  0  0  0  0
  -11.3996  -22.6439   30.6487 H   0  0  0  0  0  0  0  0  0  0  0  0
  -12.3748  -21.0857   30.6318 H   0  0  0  0  0  0  0  0  0  0  0  0
  -10.5622  -20.9288   28.9053 H   0  0  0  0  0  0  0  0  0  0  0  0
  -12.3429  -20.8806   28.7407 H   0  0  0  0  0  0  0  0  0  0  0  0
  -11.9978  -23.7750   28.3067 H   0  0  0  0  0  0  0  0  0  0  0  0
  -10.1613  -23.9643   28.2583 H   0  0  0  0  0  0  0  0  0  0  0  0
  -11.6505  -25.2204   26.3954 H   0  0  0  0  0  0  0  0  0  0  0  0
  -10.3481  -24.2086   25.8308 H   0  0  0  0  0  0  0  0  0  0  0  0
  -12.1039  -22.9198   24.7902 H   0  0  0  0  0  0  0  0  0  0  0  0
  -13.3018  -23.6982   25.8228 H   0  0  0  0  0  0  0  0  0  0  0  0
  -13.1416  -22.0647   27.2534 H   0  0  0  0  0  0  0  0  0  0  0  0
  -12.1112  -21.1600   26.1234 H   0  0  0  0  0  0  0  0  0  0  0  0
  1  2  2  0
  2  3  1  0
  3  4  1  0
  4  5  1  0
  5  6  1  0
  6  7  1  0
  7  8  2  0
  8  9  1  0
  9 10  2  0
 10 11  1  0
 11 12  2  0
 12 13  1  0
 13 14  2  0
 13 15  1  0
 15 16  1  0
 16 17  1  0
  8 18  1  0
 18 19  1  0
  2 20  1  0
 20 21  1  0
 21 22  1  0
 22 23  1  0
 23 24  1  0
 24 25  1  0
 25 26  1  0
 26 27  1  0
 19  6  2  0
 27 23  1  0
 14  9  1  0
 17 12  1  0
  3 28  1  0
  3 29  1  0
  5 30  1  0
  5 31  1  0
  7 32  1  0
 10 33  1  0
 11 34  1  0
 14 35  1  0
 16 36  1  0
 16 37  1  0
 20 38  1  0
 21 39  1  0
 21 40  1  0
 22 41  1  0
 22 42  1  0
 24 43  1  0
 24 44  1  0
 25 45  1  0
 25 46  1  0
 26 47  1  0
 26 48  1  0
 27 49  1  0
 27 50  1  0
M  END
>  <Energy>  (886) 
1390.8191655870894

>  <compound_id>  (886) 
39126

>  <target_id>  (886) 
1

>  <reference_id>  (886) 
13

>  <inspiration_ids>  (886) 
[13, 3]

>  <energy_score>  (886) 
1257.4238302120857

>  <distance_score>  (886) 
7.457815782360034

>  <path>  (886) 
/opt/xchem-fragalysis-2/maxwin/BulkDock/SCRATCH/511016/C39126-P13/C39126-P13.minimised.mol

>  <scratch_subdir>  (886) 
/opt/xchem-fragalysis-2/maxwin/BulkDock/SCRATCH/511016/C39126-P13

>  <fragmenstein_runtime>  (886) 
35.590012311935425

>  <fragmenstein_outcome>  (886) 
too moved

>  <fragmenstein_mode>  (886) 
expansion

>  <fragmenstein_error>  (886) 


$$$$
C39126-P3
     RDKit          3D

 50 53  0  0  0  0  0  0  0  0999 V2000
  -10.8276  -15.7166   33.5216 O   0  0  0  0  0  0  0  0  0  0  0  0
  -10.0103  -16.2424   32.7833 C   0  0  0  0  0  0  0  0  0  0  0  0
   -8.4985  -15.0972   32.4715 C   0  0  0  0  0  0  0  0  0  0  0  0
   -7.2344  -14.2816   32.8748 O   0  0  0  0  0  0  0  0  0  0  0  0
   -7.2823  -12.7633   32.8562 C   0  0  0  0  0  0  0  0  0  0  0  0
   -5.9579  -11.6519   32.5469 C   0  0  0  0  0  0  0  0  0  0  0  0
   -4.7775  -10.4420   33.3369 C   0  0  0  0  0  0  0  0  0  0  0  0
   -4.3761   -9.2893   32.4876 C   0  0  0  0  0  0  0  0  0  0  0  0
   -3.8171   -7.4405   32.1588 C   0  0  0  0  0  0  0  0  0  0  0  0
   -2.7150   -6.9646   31.1242 C   0  0  0  0  0  0  0  0  0  0  0  0
   -2.6565   -5.8080   30.2620 C   0  0  0  0  0  0  0  0  0  0  0  0
   -3.2749   -4.6999   30.6657 C   0  0  0  0  0  0  0  0  0  0  0  0
   -4.2296   -4.8241   31.6057 C   0  0  0  0  0  0  0  0  0  0  0  0
   -4.6396   -6.0835   32.1114 C   0  0  0  0  0  0  0  0  0  0  0  0
   -4.5496   -3.5970   32.1139 O   0  0  0  0  0  0  0  0  0  0  0  0
   -3.3935   -2.8766   31.6228 C   0  0  0  0  0  0  0  0  0  0  0  0
   -2.9272   -3.4234   30.3813 O   0  0  0  0  0  0  0  0  0  0  0  0
   -3.8379  -10.6896   31.7293 O   0  0  0  0  0  0  0  0  0  0  0  0
   -5.1450  -12.0267   31.6000 N   0  0  0  0  0  0  0  0  0  0  0  0
  -10.0291  -17.5490   32.1184 N   0  0  0  0  0  0  0  0  0  0  0  0
  -11.0047  -18.6873   32.2132 C   0  0  0  0  0  0  0  0  0  0  0  0
  -10.6742  -20.1533   31.8068 C   0  0  0  0  0  0  0  0  0  0  0  0
  -11.2392  -20.6950   30.5512 N   0  0  0  0  0  0  0  0  0  0  0  0
  -10.6865  -21.9872   30.1562 C   0  0  0  0  0  0  0  0  0  0  0  0
  -11.2319  -22.1876   28.7511 C   0  0  0  0  0  0  0  0  0  0  0  0
  -11.4998  -20.7887   28.2234 C   0  0  0  0  0  0  0  0  0  0  0  0
  -11.2155  -19.8378   29.3757 C   0  0  0  0  0  0  0  0  0  0  0  0
   -9.1004  -14.3402   32.9855 H   0  0  0  0  0  0  0  0  0  0  0  0
   -7.9330  -15.9503   32.8554 H   0  0  0  0  0  0  0  0  0  0  0  0
   -7.7707  -12.4280   33.7742 H   0  0  0  0  0  0  0  0  0  0  0  0
   -7.8756  -12.6093   31.9589 H   0  0  0  0  0  0  0  0  0  0  0  0
   -4.5209  -10.4584   34.3722 H   0  0  0  0  0  0  0  0  0  0  0  0
   -1.9644   -7.6893   30.8434 H   0  0  0  0  0  0  0  0  0  0  0  0
   -2.0287   -5.7397   29.3934 H   0  0  0  0  0  0  0  0  0  0  0  0
   -5.6639   -5.9167   32.4508 H   0  0  0  0  0  0  0  0  0  0  0  0
   -2.6004   -3.0204   32.3450 H   0  0  0  0  0  0  0  0  0  0  0  0
   -3.5627   -1.8009   31.5619 H   0  0  0  0  0  0  0  0  0  0  0  0
   -9.1555  -17.6887   31.6528 H   0  0  0  0  0  0  0  0  0  0  0  0
  -11.9266  -18.4084   31.7407 H   0  0  0  0  0  0  0  0  0  0  0  0
  -11.2935  -18.7083   33.2728 H   0  0  0  0  0  0  0  0  0  0  0  0
   -9.6083  -20.3419   31.9268 H   0  0  0  0  0  0  0  0  0  0  0  0
  -11.1252  -20.7770   32.5911 H   0  0  0  0  0  0  0  0  0  0  0  0
  -10.9978  -22.7952   30.8241 H   0  0  0  0  0  0  0  0  0  0  0  0
   -9.5932  -21.9881   30.1314 H   0  0  0  0  0  0  0  0  0  0  0  0
  -12.1546  -22.7749   28.7695 H   0  0  0  0  0  0  0  0  0  0  0  0
  -10.5293  -22.7207   28.1092 H   0  0  0  0  0  0  0  0  0  0  0  0
  -10.8537  -20.5619   27.3846 H   0  0  0  0  0  0  0  0  0  0  0  0
  -12.5190  -20.7024   27.8446 H   0  0  0  0  0  0  0  0  0  0  0  0
  -11.9513  -19.0372   29.4106 H   0  0  0  0  0  0  0  0  0  0  0  0
  -10.2585  -19.3526   29.2080 H   0  0  0  0  0  0  0  0  0  0  0  0
  1  2  2  0
  2  3  1  0
  3  4  1  0
  4  5  1  0
  5  6  1  0
  6  7  1  0
  7  8  2  0
  8  9  1  0
  9 10  2  0
 10 11  1  0
 11 12  2  0
 12 13  1  0
 13 14  2  0
 13 15  1  0
 15 16  1  0
 16 17  1  0
  8 18  1  0
 18 19  1  0
  2 20  1  0
 20 21  1  0
 21 22  1  0
 22 23  1  0
 23 24  1  0
 24 25  1  0
 25 26  1  0
 26 27  1  0
 19  6  2  0
 27 23  1  0
 14  9  1  0
 17 12  1  0
  3 28  1  0
  3 29  1  0
  5 30  1  0
  5 31  1  0
  7 32  1  0
 10 33  1  0
 11 34  1  0
 14 35  1  0
 16 36  1  0
 16 37  1  0
 20 38  1  0
 21 39  1  0
 21 40  1  0
 22 41  1  0
 22 42  1  0
 24 43  1  0
 24 44  1  0
 25 45  1  0
 25 46  1  0
 26 47  1  0
 26 48  1  0
 27 49  1  0
 27 50  1  0
M  END
>  <Energy>  (887) 
585.54173290489882

>  <compound_id>  (887) 
39126

>  <target_id>  (887) 
1

>  <reference_id>  (887) 
3

>  <inspiration_ids>  (887) 
[13, 3]

>  <energy_score>  (887) 
452.1463975298976

>  <distance_score>  (887) 
6.659624116730891

>  <path>  (887) 
/opt/xchem-fragalysis-2/maxwin/BulkDock/SCRATCH/511016/C39126-P3/C39126-P3.minimised.mol

>  <scratch_subdir>  (887) 
/opt/xchem-fragalysis-2/maxwin/BulkDock/SCRATCH/511016/C39126-P3

>  <fragmenstein_runtime>  (887) 
23.642809867858887

>  <fragmenstein_outcome>  (887) 
too moved

>  <fragmenstein_mode>  (887) 
expansion

>  <fragmenstein_error>  (887) 


$$$$
C39135-P13
     RDKit          3D

 54 57  0  0  0  0  0  0  0  0999 V2000
   -2.5668   -8.4812   33.4433 O   0  0  0  0  0  0  0  0  0  0  0  0
   -2.8883   -8.7237   32.0488 S   0  0  0  0  0  0  0  0  0  0  0  0
   -1.9689   -9.5977   31.3256 O   0  0  0  0  0  0  0  0  0  0  0  0
   -5.1428   -9.4216   31.9170 C   0  0  0  0  0  0  0  0  0  0  0  0
   -5.9551  -11.4048   32.1574 C   0  0  0  0  0  0  0  0  0  0  0  0
   -6.4273  -13.1424   31.1270 C   0  0  0  0  0  0  0  0  0  0  0  0
   -5.7002  -13.3724   29.6112 C   0  0  0  0  0  0  0  0  0  0  0  0
   -5.1356  -14.4946   28.9509 C   0  0  0  0  0  0  0  0  0  0  0  0
   -4.9427  -15.6099   29.7012 C   0  0  0  0  0  0  0  0  0  0  0  0
   -5.4729  -15.5670   30.9744 C   0  0  0  0  0  0  0  0  0  0  0  0
   -6.3114  -14.4290   31.5016 C   0  0  0  0  0  0  0  0  0  0  0  0
   -2.2708   -7.2815   31.4023 N   0  0  0  0  0  0  0  0  0  0  0  0
   -0.7885   -6.9451   31.7045 C   0  0  0  0  0  0  0  0  0  0  0  0
   -0.1084   -5.7923   30.8363 C   0  0  0  0  0  0  0  0  0  0  0  0
   -0.6670   -4.3503   30.7877 C   0  0  0  0  0  0  0  0  0  0  0  0
   -1.1486   -3.6447   31.9083 C   0  0  0  0  0  0  0  0  0  0  0  0
   -1.5496   -2.2929   31.8123 C   0  0  0  0  0  0  0  0  0  0  0  0
   -1.4512   -1.6507   30.5946 C   0  0  0  0  0  0  0  0  0  0  0  0
   -0.9875   -2.3131   29.4944 C   0  0  0  0  0  0  0  0  0  0  0  0
   -0.6113   -3.6413   29.5585 C   0  0  0  0  0  0  0  0  0  0  0  0
   -0.9235   -1.5219   28.3930 O   0  0  0  0  0  0  0  0  0  0  0  0
   -1.4156   -0.2773   28.9187 C   0  0  0  0  0  0  0  0  0  0  0  0
   -1.7672   -0.3547   30.3234 O   0  0  0  0  0  0  0  0  0  0  0  0
    1.3536   -5.8207   31.1343 N   0  0  0  0  0  0  0  0  0  0  0  0
    1.7366   -5.4251   32.4973 C   0  0  0  0  0  0  0  0  0  0  0  0
    2.9150   -4.4720   32.3598 C   0  0  0  0  0  0  0  0  0  0  0  0
    2.7888   -3.9358   30.9503 C   0  0  0  0  0  0  0  0  0  0  0  0
    2.2305   -5.1228   30.1904 C   0  0  0  0  0  0  0  0  0  0  0  0
   -5.1486   -9.0651   33.0207 H   0  0  0  0  0  0  0  0  0  0  0  0
   -5.5000   -8.7412   31.1621 H   0  0  0  0  0  0  0  0  0  0  0  0
   -5.5184  -11.6576   33.0980 H   0  0  0  0  0  0  0  0  0  0  0  0
   -6.9592  -11.5094   32.6580 H   0  0  0  0  0  0  0  0  0  0  0  0
   -5.4267  -12.4645   29.0416 H   0  0  0  0  0  0  0  0  0  0  0  0
   -4.7335  -14.4056   27.9474 H   0  0  0  0  0  0  0  0  0  0  0  0
   -4.4592  -16.4967   29.3112 H   0  0  0  0  0  0  0  0  0  0  0  0
   -5.4893  -16.5242   31.5021 H   0  0  0  0  0  0  0  0  0  0  0  0
   -7.3619  -14.6695   31.7013 H   0  0  0  0  0  0  0  0  0  0  0  0
   -2.6957   -6.5866   32.0122 H   0  0  0  0  0  0  0  0  0  0  0  0
   -0.2083   -7.8608   31.5435 H   0  0  0  0  0  0  0  0  0  0  0  0
   -0.7290   -6.6802   32.7672 H   0  0  0  0  0  0  0  0  0  0  0  0
   -0.2246   -6.1772   29.8218 H   0  0  0  0  0  0  0  0  0  0  0  0
   -1.2002   -4.1245   32.8848 H   0  0  0  0  0  0  0  0  0  0  0  0
   -1.9113   -1.7651   32.6889 H   0  0  0  0  0  0  0  0  0  0  0  0
   -0.2600   -4.1109   28.6476 H   0  0  0  0  0  0  0  0  0  0  0  0
   -2.2946    0.0262   28.3437 H   0  0  0  0  0  0  0  0  0  0  0  0
   -0.6393    0.4873   28.7989 H   0  0  0  0  0  0  0  0  0  0  0  0
    2.0190   -6.3055   33.0841 H   0  0  0  0  0  0  0  0  0  0  0  0
    0.9360   -4.9229   33.0448 H   0  0  0  0  0  0  0  0  0  0  0  0
    3.8593   -5.0156   32.4721 H   0  0  0  0  0  0  0  0  0  0  0  0
    2.8946   -3.6726   33.1066 H   0  0  0  0  0  0  0  0  0  0  0  0
    2.0909   -3.0917   30.9284 H   0  0  0  0  0  0  0  0  0  0  0  0
    3.7490   -3.5970   30.5505 H   0  0  0  0  0  0  0  0  0  0  0  0
    1.7733   -4.8420   29.2400 H   0  0  0  0  0  0  0  0  0  0  0  0
    3.0556   -5.7969   29.9318 H   0  0  0  0  0  0  0  0  0  0  0  0
  1  2  2  0
  2  3  2  0
  2  4  1  0
  4  5  1  0
  5  6  1  0
  6  7  2  0
  7  8  1  0
  8  9  2  0
  9 10  1  0
 10 11  2  0
  2 12  1  0
 12 13  1  0
 13 14  1  0
 14 15  1  0
 15 16  2  0
 16 17  1  0
 17 18  2  0
 18 19  1  0
 19 20  2  0
 19 21  1  0
 21 22  1  0
 22 23  1  0
 14 24  1  0
 24 25  1  0
 25 26  1  0
 26 27  1  0
 27 28  1  0
 11  6  1  0
 20 15  1  0
 28 24  1  0
 23 18  1  0
  4 29  1  0
  4 30  1  0
  5 31  1  0
  5 32  1  0
  7 33  1  0
  8 34  1  0
  9 35  1  0
 10 36  1  0
 11 37  1  0
 12 38  1  0
 13 39  1  0
 13 40  1  0
 14 41  1  0
 16 42  1  0
 17 43  1  0
 20 44  1  0
 22 45  1  0
 22 46  1  0
 25 47  1  0
 25 48  1  0
 26 49  1  0
 26 50  1  0
 27 51  1  0
 27 52  1  0
 28 53  1  0
 28 54  1  0
M  END
>  <Energy>  (888) 
440.40290260107247

>  <compound_id>  (888) 
39135

>  <target_id>  (888) 
1

>  <reference_id>  (888) 
13

>  <inspiration_ids>  (888) 
[13, 3]

>  <energy_score>  (888) 
251.53305224036933

>  <distance_score>  (888) 
6.537972265618767

>  <path>  (888) 
/opt/xchem-fragalysis-2/maxwin/BulkDock/SCRATCH/511016/C39135-P13/C39135-P13.minimised.mol

>  <scratch_subdir>  (888) 
/opt/xchem-fragalysis-2/maxwin/BulkDock/SCRATCH/511016/C39135-P13

>  <fragmenstein_runtime>  (888) 
19.171308040618896

>  <fragmenstein_outcome>  (888) 
too moved

>  <fragmenstein_mode>  (888) 
expansion

>  <fragmenstein_error>  (888) 


$$$$
C39135-P3
     RDKit          3D

 54 57  0  0  0  0  0  0  0  0999 V2000
   -2.1094  -10.2132   31.1391 O   0  0  0  0  0  0  0  0  0  0  0  0
   -1.0401   -9.4013   30.5349 S   0  0  0  0  0  0  0  0  0  0  0  0
    0.2917   -9.2009   31.0957 O   0  0  0  0  0  0  0  0  0  0  0  0
   -0.7942  -10.9126   29.4596 C   0  0  0  0  0  0  0  0  0  0  0  0
   -1.4889  -12.4714   30.2747 C   0  0  0  0  0  0  0  0  0  0  0  0
   -2.8069  -13.5877   30.6723 C   0  0  0  0  0  0  0  0  0  0  0  0
   -4.5740  -13.4713   30.9421 C   0  0  0  0  0  0  0  0  0  0  0  0
   -5.6264  -14.7793   31.2938 C   0  0  0  0  0  0  0  0  0  0  0  0
   -4.8437  -16.2800   31.5691 C   0  0  0  0  0  0  0  0  0  0  0  0
   -3.1971  -16.4292   31.3734 C   0  0  0  0  0  0  0  0  0  0  0  0
   -2.2036  -15.1394   30.9241 C   0  0  0  0  0  0  0  0  0  0  0  0
   -1.9266   -7.3490   30.6541 N   0  0  0  0  0  0  0  0  0  0  0  0
   -2.6054   -6.1921   29.3754 C   0  0  0  0  0  0  0  0  0  0  0  0
   -1.9620   -4.6503   29.0651 C   0  0  0  0  0  0  0  0  0  0  0  0
   -2.2608   -3.7994   27.7808 C   0  0  0  0  0  0  0  0  0  0  0  0
   -1.7732   -4.2448   26.5399 C   0  0  0  0  0  0  0  0  0  0  0  0
   -1.4944   -3.3536   25.4805 C   0  0  0  0  0  0  0  0  0  0  0  0
   -1.6875   -2.0055   25.6647 C   0  0  0  0  0  0  0  0  0  0  0  0
   -2.2588   -1.5553   26.8150 C   0  0  0  0  0  0  0  0  0  0  0  0
   -2.5837   -2.4249   27.8424 C   0  0  0  0  0  0  0  0  0  0  0  0
   -2.4820   -0.2147   26.8026 O   0  0  0  0  0  0  0  0  0  0  0  0
   -1.9512    0.1297   25.5040 C   0  0  0  0  0  0  0  0  0  0  0  0
   -1.4433   -1.0087   24.7784 O   0  0  0  0  0  0  0  0  0  0  0  0
   -1.6610   -3.8150   30.2486 N   0  0  0  0  0  0  0  0  0  0  0  0
   -0.6512   -2.7427   30.0567 C   0  0  0  0  0  0  0  0  0  0  0  0
   -1.1944   -1.4517   30.5951 C   0  0  0  0  0  0  0  0  0  0  0  0
   -2.5018   -1.8336   31.2112 C   0  0  0  0  0  0  0  0  0  0  0  0
   -2.7938   -3.2862   30.9451 C   0  0  0  0  0  0  0  0  0  0  0  0
    0.2854  -11.1063   29.5672 H   0  0  0  0  0  0  0  0  0  0  0  0
   -0.8966  -10.8034   28.3769 H   0  0  0  0  0  0  0  0  0  0  0  0
   -0.9036  -13.1815   29.6688 H   0  0  0  0  0  0  0  0  0  0  0  0
   -0.9961  -12.4281   31.2588 H   0  0  0  0  0  0  0  0  0  0  0  0
   -5.1341  -12.5827   31.1032 H   0  0  0  0  0  0  0  0  0  0  0  0
   -6.6631  -14.5990   31.5491 H   0  0  0  0  0  0  0  0  0  0  0  0
   -5.4305  -17.1155   31.9159 H   0  0  0  0  0  0  0  0  0  0  0  0
   -2.7376  -17.3963   31.5597 H   0  0  0  0  0  0  0  0  0  0  0  0
   -1.1358  -15.3192   30.8313 H   0  0  0  0  0  0  0  0  0  0  0  0
   -2.7725   -7.4801   31.2109 H   0  0  0  0  0  0  0  0  0  0  0  0
   -2.7374   -6.7334   28.4355 H   0  0  0  0  0  0  0  0  0  0  0  0
   -3.5952   -5.9528   29.7723 H   0  0  0  0  0  0  0  0  0  0  0  0
   -0.9818   -4.9275   28.7633 H   0  0  0  0  0  0  0  0  0  0  0  0
   -1.4574   -5.2780   26.4136 H   0  0  0  0  0  0  0  0  0  0  0  0
   -1.1008   -3.7354   24.5486 H   0  0  0  0  0  0  0  0  0  0  0  0
   -2.9933   -1.9771   28.7284 H   0  0  0  0  0  0  0  0  0  0  0  0
   -1.1393    0.8538   25.6371 H   0  0  0  0  0  0  0  0  0  0  0  0
   -2.7480    0.5960   24.9130 H   0  0  0  0  0  0  0  0  0  0  0  0
   -0.3605   -2.5444   29.0246 H   0  0  0  0  0  0  0  0  0  0  0  0
    0.2640   -2.9868   30.6000 H   0  0  0  0  0  0  0  0  0  0  0  0
   -1.3553   -0.7290   29.7862 H   0  0  0  0  0  0  0  0  0  0  0  0
   -0.4991   -0.9662   31.2765 H   0  0  0  0  0  0  0  0  0  0  0  0
   -2.5577   -1.6952   32.2602 H   0  0  0  0  0  0  0  0  0  0  0  0
   -3.2286   -1.1235   30.8763 H   0  0  0  0  0  0  0  0  0  0  0  0
   -2.9374   -3.8236   31.8812 H   0  0  0  0  0  0  0  0  0  0  0  0
   -3.7082   -3.4158   30.3997 H   0  0  0  0  0  0  0  0  0  0  0  0
  1  2  2  0
  2  3  2  0
  2  4  1  0
  4  5  1  0
  5  6  1  0
  6  7  2  0
  7  8  1  0
  8  9  2  0
  9 10  1  0
 10 11  2  0
  2 12  1  0
 12 13  1  0
 13 14  1  0
 14 15  1  0
 15 16  2  0
 16 17  1  0
 17 18  2  0
 18 19  1  0
 19 20  2  0
 19 21  1  0
 21 22  1  0
 22 23  1  0
 14 24  1  0
 24 25  1  0
 25 26  1  0
 26 27  1  0
 27 28  1  0
 11  6  1  0
 20 15  1  0
 28 24  1  0
 23 18  1  0
  4 29  1  0
  4 30  1  0
  5 31  1  0
  5 32  1  0
  7 33  1  0
  8 34  1  0
  9 35  1  0
 10 36  1  0
 11 37  1  0
 12 38  1  0
 13 39  1  0
 13 40  1  0
 14 41  1  0
 16 42  1  0
 17 43  1  0
 20 44  1  0
 22 45  1  0
 22 46  1  0
 25 47  1  0
 25 48  1  0
 26 49  1  0
 26 50  1  0
 27 51  1  0
 27 52  1  0
 28 53  1  0
 28 54  1  0
M  END
>  <Energy>  (889) 
510.30694731925337

>  <compound_id>  (889) 
39135

>  <target_id>  (889) 
1

>  <reference_id>  (889) 
3

>  <inspiration_ids>  (889) 
[13, 3]

>  <energy_score>  (889) 
321.4370969585598

>  <distance_score>  (889) 
6.564860748831925

>  <path>  (889) 
/opt/xchem-fragalysis-2/maxwin/BulkDock/SCRATCH/511016/C39135-P3/C39135-P3.minimised.mol

>  <scratch_subdir>  (889) 
/opt/xchem-fragalysis-2/maxwin/BulkDock/SCRATCH/511016/C39135-P3

>  <fragmenstein_runtime>  (889) 
15.825956344604492

>  <fragmenstein_outcome>  (889) 
too moved

>  <fragmenstein_mode>  (889) 
expansion

>  <fragmenstein_error>  (889) 


$$$$
C39144-P13
     RDKit          3D

 51 54  0  0  0  0  0  0  0  0999 V2000
   -6.8313  -10.8055   35.6443 O   0  0  0  0  0  0  0  0  0  0  0  0
   -6.4515  -10.7464   34.4774 C   0  0  0  0  0  0  0  0  0  0  0  0
   -7.6028  -12.0814   33.2812 C   0  0  0  0  0  0  0  0  0  0  0  0
   -8.9425  -13.4961   33.1476 O   0  0  0  0  0  0  0  0  0  0  0  0
   -9.8412  -15.0111   33.4866 C   0  0  0  0  0  0  0  0  0  0  0  0
  -11.2435  -15.0999   33.4753 C   0  0  0  0  0  0  0  0  0  0  0  0
  -12.2164  -15.8346   34.4366 C   0  0  0  0  0  0  0  0  0  0  0  0
  -11.8263  -16.8341   35.2895 C   0  0  0  0  0  0  0  0  0  0  0  0
  -10.5254  -17.1826   35.1057 C   0  0  0  0  0  0  0  0  0  0  0  0
   -9.6579  -16.3343   34.2762 C   0  0  0  0  0  0  0  0  0  0  0  0
   -5.2631   -9.9597   33.9185 N   0  0  0  0  0  0  0  0  0  0  0  0
   -4.0121   -9.0079   34.7294 C   0  0  0  0  0  0  0  0  0  0  0  0
   -2.4025   -8.3617   34.2539 C   0  0  0  0  0  0  0  0  0  0  0  0
   -1.7611   -7.0427   33.5984 C   0  0  0  0  0  0  0  0  0  0  0  0
   -1.3629   -5.9019   34.3450 C   0  0  0  0  0  0  0  0  0  0  0  0
   -0.7678   -4.7560   33.7550 C   0  0  0  0  0  0  0  0  0  0  0  0
   -0.5284   -4.7601   32.4043 C   0  0  0  0  0  0  0  0  0  0  0  0
   -0.7850   -5.8851   31.6681 C   0  0  0  0  0  0  0  0  0  0  0  0
   -1.3717   -7.0268   32.2262 C   0  0  0  0  0  0  0  0  0  0  0  0
   -0.4328   -5.7179   30.3619 O   0  0  0  0  0  0  0  0  0  0  0  0
   -0.0511   -4.3198   30.3438 C   0  0  0  0  0  0  0  0  0  0  0  0
   -0.0443   -3.7302   31.6598 O   0  0  0  0  0  0  0  0  0  0  0  0
   -1.4768   -8.8292   35.3191 N   0  0  0  0  0  0  0  0  0  0  0  0
   -1.7954   -8.4424   36.6937 C   0  0  0  0  0  0  0  0  0  0  0  0
   -0.4889   -8.5984   37.4684 C   0  0  0  0  0  0  0  0  0  0  0  0
    0.4712   -9.2435   36.4842 C   0  0  0  0  0  0  0  0  0  0  0  0
   -0.0281   -8.7319   35.1450 C   0  0  0  0  0  0  0  0  0  0  0  0
   -8.1415  -11.4902   32.5630 H   0  0  0  0  0  0  0  0  0  0  0  0
   -6.8560  -12.5758   32.6489 H   0  0  0  0  0  0  0  0  0  0  0  0
  -11.9129  -14.7605   32.6864 H   0  0  0  0  0  0  0  0  0  0  0  0
  -13.2828  -15.6639   34.2874 H   0  0  0  0  0  0  0  0  0  0  0  0
  -12.5108  -17.4024   35.8994 H   0  0  0  0  0  0  0  0  0  0  0  0
  -10.1207  -18.0877   35.5474 H   0  0  0  0  0  0  0  0  0  0  0  0
   -8.8898  -17.0798   34.0126 H   0  0  0  0  0  0  0  0  0  0  0  0
   -5.2666  -10.0474   32.8954 H   0  0  0  0  0  0  0  0  0  0  0  0
   -4.4632   -8.3060   35.4240 H   0  0  0  0  0  0  0  0  0  0  0  0
   -3.7283   -9.8176   35.4145 H   0  0  0  0  0  0  0  0  0  0  0  0
   -2.3980   -8.9056   33.3314 H   0  0  0  0  0  0  0  0  0  0  0  0
   -1.5570   -5.8589   35.4141 H   0  0  0  0  0  0  0  0  0  0  0  0
   -0.5485   -3.8822   34.3592 H   0  0  0  0  0  0  0  0  0  0  0  0
   -1.5475   -7.8887   31.5929 H   0  0  0  0  0  0  0  0  0  0  0  0
    0.9546   -4.2399   29.9168 H   0  0  0  0  0  0  0  0  0  0  0  0
   -0.7533   -3.7678   29.7081 H   0  0  0  0  0  0  0  0  0  0  0  0
   -2.5496   -9.1104   37.1219 H   0  0  0  0  0  0  0  0  0  0  0  0
   -2.1687   -7.4187   36.7861 H   0  0  0  0  0  0  0  0  0  0  0  0
   -0.6079   -9.2031   38.3726 H   0  0  0  0  0  0  0  0  0  0  0  0
   -0.1117   -7.6119   37.7635 H   0  0  0  0  0  0  0  0  0  0  0  0
    1.5114   -8.9666   36.6791 H   0  0  0  0  0  0  0  0  0  0  0  0
    0.3908  -10.3362   36.5366 H   0  0  0  0  0  0  0  0  0  0  0  0
    0.3378   -7.7097   35.0159 H   0  0  0  0  0  0  0  0  0  0  0  0
    0.3562   -9.3372   34.3205 H   0  0  0  0  0  0  0  0  0  0  0  0
  1  2  2  0
  2  3  1  0
  3  4  1  0
  4  5  1  0
  5  6  2  0
  6  7  1  0
  7  8  2  0
  8  9  1  0
  9 10  2  0
  2 11  1  0
 11 12  1  0
 12 13  1  0
 13 14  1  0
 14 15  2  0
 15 16  1  0
 16 17  2  0
 17 18  1  0
 18 19  2  0
 18 20  1  0
 20 21  1  0
 21 22  1  0
 13 23  1  0
 23 24  1  0
 24 25  1  0
 25 26  1  0
 26 27  1  0
 10  5  1  0
 19 14  1  0
 27 23  1  0
 22 17  1  0
  3 28  1  0
  3 29  1  0
  6 30  1  0
  7 31  1  0
  8 32  1  0
  9 33  1  0
 10 34  1  0
 11 35  1  0
 12 36  1  0
 12 37  1  0
 13 38  1  0
 15 39  1  0
 16 40  1  0
 19 41  1  0
 21 42  1  0
 21 43  1  0
 24 44  1  0
 24 45  1  0
 25 46  1  0
 25 47  1  0
 26 48  1  0
 26 49  1  0
 27 50  1  0
 27 51  1  0
M  END
>  <Energy>  (890) 
594.67756659569875

>  <compound_id>  (890) 
39144

>  <target_id>  (890) 
1

>  <reference_id>  (890) 
13

>  <inspiration_ids>  (890) 
[13, 3]

>  <energy_score>  (890) 
463.9483299144813

>  <distance_score>  (890) 
8.2577451647181

>  <path>  (890) 
/opt/xchem-fragalysis-2/maxwin/BulkDock/SCRATCH/511016/C39144-P13/C39144-P13.minimised.mol

>  <scratch_subdir>  (890) 
/opt/xchem-fragalysis-2/maxwin/BulkDock/SCRATCH/511016/C39144-P13

>  <fragmenstein_runtime>  (890) 
31.050448179244995

>  <fragmenstein_outcome>  (890) 
too moved

>  <fragmenstein_mode>  (890) 
expansion

>  <fragmenstein_error>  (890) 


$$$$
C39144-P3
     RDKit          3D

 51 54  0  0  0  0  0  0  0  0999 V2000
   -5.1137   -5.7509   32.3659 O   0  0  0  0  0  0  0  0  0  0  0  0
   -4.1928   -6.3993   31.9362 C   0  0  0  0  0  0  0  0  0  0  0  0
   -4.0890   -8.3533   32.5362 C   0  0  0  0  0  0  0  0  0  0  0  0
   -4.5718  -10.2493   32.5854 O   0  0  0  0  0  0  0  0  0  0  0  0
   -5.7937  -11.5893   32.3368 C   0  0  0  0  0  0  0  0  0  0  0  0
   -5.6961  -12.8342   31.5226 C   0  0  0  0  0  0  0  0  0  0  0  0
   -6.5176  -13.9988   31.6832 C   0  0  0  0  0  0  0  0  0  0  0  0
   -7.3429  -14.2210   32.7831 C   0  0  0  0  0  0  0  0  0  0  0  0
   -7.4597  -13.2073   33.6893 C   0  0  0  0  0  0  0  0  0  0  0  0
   -6.9133  -11.9466   33.2724 C   0  0  0  0  0  0  0  0  0  0  0  0
   -3.1082   -5.9386   30.8588 N   0  0  0  0  0  0  0  0  0  0  0  0
   -3.0011   -4.6335   30.0172 C   0  0  0  0  0  0  0  0  0  0  0  0
   -1.8063   -3.6881   29.4007 C   0  0  0  0  0  0  0  0  0  0  0  0
   -2.0627   -2.8865   28.0572 C   0  0  0  0  0  0  0  0  0  0  0  0
   -2.5101   -1.5402   28.0256 C   0  0  0  0  0  0  0  0  0  0  0  0
   -2.4110   -0.6702   26.9368 C   0  0  0  0  0  0  0  0  0  0  0  0
   -1.9033   -1.1899   25.7943 C   0  0  0  0  0  0  0  0  0  0  0  0
   -1.5472   -2.5152   25.7298 C   0  0  0  0  0  0  0  0  0  0  0  0
   -1.6034   -3.3786   26.8268 C   0  0  0  0  0  0  0  0  0  0  0  0
   -1.2179   -2.8584   24.4578 O   0  0  0  0  0  0  0  0  0  0  0  0
   -1.3500   -1.5935   23.7692 C   0  0  0  0  0  0  0  0  0  0  0  0
   -1.7804   -0.5232   24.6229 O   0  0  0  0  0  0  0  0  0  0  0  0
   -1.1254   -2.8110   30.4127 N   0  0  0  0  0  0  0  0  0  0  0  0
   -1.9374   -1.7231   30.9422 C   0  0  0  0  0  0  0  0  0  0  0  0
   -1.2037   -0.3980   30.7117 C   0  0  0  0  0  0  0  0  0  0  0  0
    0.2355   -0.7943   30.5480 C   0  0  0  0  0  0  0  0  0  0  0  0
    0.1411   -2.1848   29.9605 C   0  0  0  0  0  0  0  0  0  0  0  0
   -3.3488   -8.4255   31.7600 H   0  0  0  0  0  0  0  0  0  0  0  0
   -5.0194   -8.2963   32.1826 H   0  0  0  0  0  0  0  0  0  0  0  0
   -4.8689  -13.0308   30.8699 H   0  0  0  0  0  0  0  0  0  0  0  0
   -6.2979  -14.8328   31.0411 H   0  0  0  0  0  0  0  0  0  0  0  0
   -7.7661  -15.2016   32.9284 H   0  0  0  0  0  0  0  0  0  0  0  0
   -7.9874  -13.3038   34.6275 H   0  0  0  0  0  0  0  0  0  0  0  0
   -7.6011  -11.9319   32.3958 H   0  0  0  0  0  0  0  0  0  0  0  0
   -2.4146   -6.6666   30.7614 H   0  0  0  0  0  0  0  0  0  0  0  0
   -3.5723   -4.9337   29.1301 H   0  0  0  0  0  0  0  0  0  0  0  0
   -3.6333   -3.9542   30.5949 H   0  0  0  0  0  0  0  0  0  0  0  0
   -1.1164   -4.4499   29.0721 H   0  0  0  0  0  0  0  0  0  0  0  0
   -2.9280   -1.0680   28.8875 H   0  0  0  0  0  0  0  0  0  0  0  0
   -2.7365    0.3611   27.0005 H   0  0  0  0  0  0  0  0  0  0  0  0
   -1.2379   -4.3938   26.7239 H   0  0  0  0  0  0  0  0  0  0  0  0
   -0.3754   -1.3269   23.3438 H   0  0  0  0  0  0  0  0  0  0  0  0
   -2.0611   -1.7104   22.9461 H   0  0  0  0  0  0  0  0  0  0  0  0
   -2.0511   -1.9184   31.9859 H   0  0  0  0  0  0  0  0  0  0  0  0
   -2.9751   -1.7279   30.6432 H   0  0  0  0  0  0  0  0  0  0  0  0
   -1.3013    0.3321   31.5114 H   0  0  0  0  0  0  0  0  0  0  0  0
   -1.5373    0.1160   29.8080 H   0  0  0  0  0  0  0  0  0  0  0  0
    0.7785   -0.1048   29.8933 H   0  0  0  0  0  0  0  0  0  0  0  0
    0.7592   -0.8080   31.5069 H   0  0  0  0  0  0  0  0  0  0  0  0
    0.2054   -2.0632   28.8756 H   0  0  0  0  0  0  0  0  0  0  0  0
    1.0015   -2.7533   30.3228 H   0  0  0  0  0  0  0  0  0  0  0  0
  1  2  2  0
  2  3  1  0
  3  4  1  0
  4  5  1  0
  5  6  2  0
  6  7  1  0
  7  8  2  0
  8  9  1  0
  9 10  2  0
  2 11  1  0
 11 12  1  0
 12 13  1  0
 13 14  1  0
 14 15  2  0
 15 16  1  0
 16 17  2  0
 17 18  1  0
 18 19  2  0
 18 20  1  0
 20 21  1  0
 21 22  1  0
 13 23  1  0
 23 24  1  0
 24 25  1  0
 25 26  1  0
 26 27  1  0
 10  5  1  0
 19 14  1  0
 27 23  1  0
 22 17  1  0
  3 28  1  0
  3 29  1  0
  6 30  1  0
  7 31  1  0
  8 32  1  0
  9 33  1  0
 10 34  1  0
 11 35  1  0
 12 36  1  0
 12 37  1  0
 13 38  1  0
 15 39  1  0
 16 40  1  0
 19 41  1  0
 21 42  1  0
 21 43  1  0
 24 44  1  0
 24 45  1  0
 25 46  1  0
 25 47  1  0
 26 48  1  0
 26 49  1  0
 27 50  1  0
 27 51  1  0
M  END
>  <Energy>  (891) 
564.51612104344304

>  <compound_id>  (891) 
39144

>  <target_id>  (891) 
1

>  <reference_id>  (891) 
3

>  <inspiration_ids>  (891) 
[13, 3]

>  <energy_score>  (891) 
433.7868843622295

>  <distance_score>  (891) 
6.46093494942177

>  <path>  (891) 
/opt/xchem-fragalysis-2/maxwin/BulkDock/SCRATCH/511016/C39144-P3/C39144-P3.minimised.mol

>  <scratch_subdir>  (891) 
/opt/xchem-fragalysis-2/maxwin/BulkDock/SCRATCH/511016/C39144-P3

>  <fragmenstein_runtime>  (891) 
17.427180290222168

>  <fragmenstein_outcome>  (891) 
too moved

>  <fragmenstein_mode>  (891) 
expansion

>  <fragmenstein_error>  (891) 


$$$$
C39149-P13
     RDKit          3D

 51 54  0  0  0  0  0  0  0  0999 V2000
   -6.9674  -13.8640   28.6264 O   0  0  0  0  0  0  0  0  0  0  0  0
   -6.9367  -13.6307   27.4680 C   0  0  0  0  0  0  0  0  0  0  0  0
   -5.4407  -12.1205   27.1049 C   0  0  0  0  0  0  0  0  0  0  0  0
   -3.5987  -11.8084   26.7802 C   0  0  0  0  0  0  0  0  0  0  0  0
   -2.2948  -10.1870   26.2272 C   0  0  0  0  0  0  0  0  0  0  0  0
   -3.0914   -8.5674   26.1423 C   0  0  0  0  0  0  0  0  0  0  0  0
   -3.2519   -7.5103   27.1057 C   0  0  0  0  0  0  0  0  0  0  0  0
   -2.4191   -6.6623   26.8563 C   0  0  0  0  0  0  0  0  0  0  0  0
   -2.0591   -6.9635   25.5910 C   0  0  0  0  0  0  0  0  0  0  0  0
   -1.9013   -8.7866   25.2827 C   0  0  0  0  0  0  0  0  0  0  0  0
   -1.4552   -5.5941   25.2709 O   0  0  0  0  0  0  0  0  0  0  0  0
   -1.3662   -4.7378   26.8950 C   0  0  0  0  0  0  0  0  0  0  0  0
   -1.9926   -5.7024   27.8014 O   0  0  0  0  0  0  0  0  0  0  0  0
   -8.1090  -14.8943   26.4972 N   0  0  0  0  0  0  0  0  0  0  0  0
   -9.1566  -16.5423   27.0925 C   0  0  0  0  0  0  0  0  0  0  0  0
   -9.4926  -18.5217   27.9343 C   0  0  0  0  0  0  0  0  0  0  0  0
  -11.0072  -18.4693   29.2917 C   0  0  0  0  0  0  0  0  0  0  0  0
  -12.2597  -18.1764   29.0281 C   0  0  0  0  0  0  0  0  0  0  0  0
  -13.1117  -19.5761   29.3883 C   0  0  0  0  0  0  0  0  0  0  0  0
  -12.9078  -20.9432   29.7082 C   0  0  0  0  0  0  0  0  0  0  0  0
  -11.7161  -21.3920   29.8823 C   0  0  0  0  0  0  0  0  0  0  0  0
  -10.9248  -20.3129   29.8059 C   0  0  0  0  0  0  0  0  0  0  0  0
   -9.7785  -20.6026   27.7001 N   0  0  0  0  0  0  0  0  0  0  0  0
   -9.5906  -22.3423   28.2832 C   0  0  0  0  0  0  0  0  0  0  0  0
  -10.2276  -23.5156   27.5197 C   0  0  0  0  0  0  0  0  0  0  0  0
  -11.5147  -22.9298   27.0790 C   0  0  0  0  0  0  0  0  0  0  0  0
  -11.3715  -21.3687   27.0956 C   0  0  0  0  0  0  0  0  0  0  0  0
   -5.4630  -11.8817   28.2064 H   0  0  0  0  0  0  0  0  0  0  0  0
   -2.9513  -12.6274   26.4359 H   0  0  0  0  0  0  0  0  0  0  0  0
   -4.2018   -8.3759   26.5077 H   0  0  0  0  0  0  0  0  0  0  0  0
   -3.6635   -7.5919   28.0922 H   0  0  0  0  0  0  0  0  0  0  0  0
   -1.4482   -9.0565   24.3051 H   0  0  0  0  0  0  0  0  0  0  0  0
   -0.2860   -4.4861   27.1286 H   0  0  0  0  0  0  0  0  0  0  0  0
   -1.4831   -3.6227   27.0699 H   0  0  0  0  0  0  0  0  0  0  0  0
   -7.9922  -14.7243   25.5134 H   0  0  0  0  0  0  0  0  0  0  0  0
   -8.4821  -16.4098   27.9344 H   0  0  0  0  0  0  0  0  0  0  0  0
  -10.1510  -16.1303   26.9325 H   0  0  0  0  0  0  0  0  0  0  0  0
   -8.5504  -18.5070   28.4789 H   0  0  0  0  0  0  0  0  0  0  0  0
  -12.5993  -17.1715   28.9726 H   0  0  0  0  0  0  0  0  0  0  0  0
  -14.1597  -19.3558   29.5878 H   0  0  0  0  0  0  0  0  0  0  0  0
  -13.7058  -21.5635   30.0415 H   0  0  0  0  0  0  0  0  0  0  0  0
  -11.4780  -22.2945   30.3823 H   0  0  0  0  0  0  0  0  0  0  0  0
  -10.7734  -20.4012   30.9281 H   0  0  0  0  0  0  0  0  0  0  0  0
  -10.1745  -22.4408   29.1439 H   0  0  0  0  0  0  0  0  0  0  0  0
   -8.5005  -22.5444   28.2265 H   0  0  0  0  0  0  0  0  0  0  0  0
  -10.2678  -24.3476   28.1998 H   0  0  0  0  0  0  0  0  0  0  0  0
   -9.6478  -23.9428   26.7017 H   0  0  0  0  0  0  0  0  0  0  0  0
  -12.2775  -23.2488   27.7708 H   0  0  0  0  0  0  0  0  0  0  0  0
  -11.8234  -23.3007   26.0973 H   0  0  0  0  0  0  0  0  0  0  0  0
  -11.6684  -21.0138   26.1016 H   0  0  0  0  0  0  0  0  0  0  0  0
  -12.2128  -21.0888   27.6773 H   0  0  0  0  0  0  0  0  0  0  0  0
  1  2  2  0
  2  3  1  0
  3  4  2  3
  4  5  1  0
  5  6  2  0
  6  7  1  0
  7  8  2  0
  8  9  1  0
  9 10  2  0
  9 11  1  0
 11 12  1  0
 12 13  1  0
  2 14  1  0
 14 15  1  0
 15 16  1  0
 16 17  1  0
 17 18  2  0
 18 19  1  0
 19 20  2  0
 20 21  1  0
 21 22  2  0
 16 23  1  0
 23 24  1  0
 24 25  1  0
 25 26  1  0
 26 27  1  0
 10  5  1  0
 22 17  1  0
 27 23  1  0
 13  8  1  0
  3 28  1  0
  4 29  1  0
  6 30  1  0
  7 31  1  0
 10 32  1  0
 12 33  1  0
 12 34  1  0
 14 35  1  0
 15 36  1  0
 15 37  1  0
 16 38  1  0
 18 39  1  0
 19 40  1  0
 20 41  1  0
 21 42  1  0
 22 43  1  0
 24 44  1  0
 24 45  1  0
 25 46  1  0
 25 47  1  0
 26 48  1  0
 26 49  1  0
 27 50  1  0
 27 51  1  0
M  END
>  <Energy>  (892) 
2140.7264872673072

>  <compound_id>  (892) 
39149

>  <target_id>  (892) 
1

>  <reference_id>  (892) 
13

>  <inspiration_ids>  (892) 
[13, 3]

>  <energy_score>  (892) 
2036.0772956432427

>  <distance_score>  (892) 
6.653435917516605

>  <path>  (892) 
/opt/xchem-fragalysis-2/maxwin/BulkDock/SCRATCH/511016/C39149-P13/C39149-P13.minimised.mol

>  <scratch_subdir>  (892) 
/opt/xchem-fragalysis-2/maxwin/BulkDock/SCRATCH/511016/C39149-P13

>  <fragmenstein_runtime>  (892) 
34.02772569656372

>  <fragmenstein_outcome>  (892) 
too moved

>  <fragmenstein_mode>  (892) 
expansion

>  <fragmenstein_error>  (892) 


$$$$
C39149-P3
     RDKit          3D

 51 54  0  0  0  0  0  0  0  0999 V2000
   -3.6607  -14.3381   26.1355 O   0  0  0  0  0  0  0  0  0  0  0  0
   -4.3874  -13.6944   26.9410 C   0  0  0  0  0  0  0  0  0  0  0  0
   -3.5063  -11.8905   27.3971 C   0  0  0  0  0  0  0  0  0  0  0  0
   -3.8084  -10.1683   27.1354 C   0  0  0  0  0  0  0  0  0  0  0  0
   -3.0654   -8.3418   27.2553 C   0  0  0  0  0  0  0  0  0  0  0  0
   -1.9574   -7.6717   26.4743 C   0  0  0  0  0  0  0  0  0  0  0  0
   -1.5420   -6.2315   26.3903 C   0  0  0  0  0  0  0  0  0  0  0  0
   -1.9955   -5.2871   27.2904 C   0  0  0  0  0  0  0  0  0  0  0  0
   -2.8857   -5.7372   28.2254 C   0  0  0  0  0  0  0  0  0  0  0  0
   -3.4596   -7.0901   28.1436 C   0  0  0  0  0  0  0  0  0  0  0  0
   -3.2408   -4.7300   29.0692 O   0  0  0  0  0  0  0  0  0  0  0  0
   -2.3666   -3.6581   28.6070 C   0  0  0  0  0  0  0  0  0  0  0  0
   -1.7575   -3.9637   27.3442 O   0  0  0  0  0  0  0  0  0  0  0  0
   -6.1291  -14.0707   27.5946 N   0  0  0  0  0  0  0  0  0  0  0  0
   -7.5852  -15.5944   27.1161 C   0  0  0  0  0  0  0  0  0  0  0  0
   -8.8148  -17.3528   27.7197 C   0  0  0  0  0  0  0  0  0  0  0  0
   -9.9680  -18.2038   29.3007 C   0  0  0  0  0  0  0  0  0  0  0  0
  -11.2092  -18.9342   29.3311 C   0  0  0  0  0  0  0  0  0  0  0  0
  -11.6508  -19.9424   30.2759 C   0  0  0  0  0  0  0  0  0  0  0  0
  -11.3325  -19.9356   31.5849 C   0  0  0  0  0  0  0  0  0  0  0  0
  -10.6562  -18.8287   31.9011 C   0  0  0  0  0  0  0  0  0  0  0  0
   -9.9447  -18.1024   30.8835 C   0  0  0  0  0  0  0  0  0  0  0  0
   -9.7112  -19.1293   27.5003 N   0  0  0  0  0  0  0  0  0  0  0  0
   -9.4939  -20.6355   28.3480 C   0  0  0  0  0  0  0  0  0  0  0  0
  -10.2732  -21.8161   27.7132 C   0  0  0  0  0  0  0  0  0  0  0  0
  -11.5160  -21.2543   27.1513 C   0  0  0  0  0  0  0  0  0  0  0  0
  -11.2417  -19.7710   26.9000 C   0  0  0  0  0  0  0  0  0  0  0  0
   -2.4580  -12.1094   27.5121 H   0  0  0  0  0  0  0  0  0  0  0  0
   -4.8701   -9.9123   26.9958 H   0  0  0  0  0  0  0  0  0  0  0  0
   -1.4194   -8.0897   25.6503 H   0  0  0  0  0  0  0  0  0  0  0  0
   -1.0084   -5.9506   25.4952 H   0  0  0  0  0  0  0  0  0  0  0  0
   -4.3975   -7.1048   28.6820 H   0  0  0  0  0  0  0  0  0  0  0  0
   -2.9460   -2.7377   28.5070 H   0  0  0  0  0  0  0  0  0  0  0  0
   -1.5890   -3.4918   29.3623 H   0  0  0  0  0  0  0  0  0  0  0  0
   -6.3751  -13.3995   28.2762 H   0  0  0  0  0  0  0  0  0  0  0  0
   -7.9501  -15.3641   26.1252 H   0  0  0  0  0  0  0  0  0  0  0  0
   -8.2942  -14.7990   26.9467 H   0  0  0  0  0  0  0  0  0  0  0  0
   -9.4426  -16.6623   27.1162 H   0  0  0  0  0  0  0  0  0  0  0  0
  -12.0423  -18.5817   28.7515 H   0  0  0  0  0  0  0  0  0  0  0  0
  -12.2860  -20.7257   29.9195 H   0  0  0  0  0  0  0  0  0  0  0  0
  -11.7640  -20.5927   32.3207 H   0  0  0  0  0  0  0  0  0  0  0  0
  -10.7404  -18.4876   32.9175 H   0  0  0  0  0  0  0  0  0  0  0  0
   -9.4319  -17.3186   31.4539 H   0  0  0  0  0  0  0  0  0  0  0  0
   -8.4317  -20.8581   28.3840 H   0  0  0  0  0  0  0  0  0  0  0  0
   -9.9342  -20.7267   29.3120 H   0  0  0  0  0  0  0  0  0  0  0  0
  -10.4978  -22.5875   28.4596 H   0  0  0  0  0  0  0  0  0  0  0  0
   -9.7448  -22.3140   26.9060 H   0  0  0  0  0  0  0  0  0  0  0  0
  -12.3490  -21.3939   27.8411 H   0  0  0  0  0  0  0  0  0  0  0  0
  -11.8012  -21.7717   26.2274 H   0  0  0  0  0  0  0  0  0  0  0  0
  -11.4152  -19.6464   25.8250 H   0  0  0  0  0  0  0  0  0  0  0  0
  -12.1371  -19.3509   27.3039 H   0  0  0  0  0  0  0  0  0  0  0  0
  1  2  2  0
  2  3  1  0
  3  4  2  3
  4  5  1  0
  5  6  2  0
  6  7  1  0
  7  8  2  0
  8  9  1  0
  9 10  2  0
  9 11  1  0
 11 12  1  0
 12 13  1  0
  2 14  1  0
 14 15  1  0
 15 16  1  0
 16 17  1  0
 17 18  2  0
 18 19  1  0
 19 20  2  0
 20 21  1  0
 21 22  2  0
 16 23  1  0
 23 24  1  0
 24 25  1  0
 25 26  1  0
 26 27  1  0
 10  5  1  0
 22 17  1  0
 27 23  1  0
 13  8  1  0
  3 28  1  0
  4 29  1  0
  6 30  1  0
  7 31  1  0
 10 32  1  0
 12 33  1  0
 12 34  1  0
 14 35  1  0
 15 36  1  0
 15 37  1  0
 16 38  1  0
 18 39  1  0
 19 40  1  0
 20 41  1  0
 21 42  1  0
 22 43  1  0
 24 44  1  0
 24 45  1  0
 25 46  1  0
 25 47  1  0
 26 48  1  0
 26 49  1  0
 27 50  1  0
 27 51  1  0
M  END
>  <Energy>  (893) 
1390.3711159121397

>  <compound_id>  (893) 
39149

>  <target_id>  (893) 
1

>  <reference_id>  (893) 
3

>  <inspiration_ids>  (893) 
[13, 3]

>  <energy_score>  (893) 
1285.7219242880697

>  <distance_score>  (893) 
5.864152862624744

>  <path>  (893) 
/opt/xchem-fragalysis-2/maxwin/BulkDock/SCRATCH/511016/C39149-P3/C39149-P3.minimised.mol

>  <scratch_subdir>  (893) 
/opt/xchem-fragalysis-2/maxwin/BulkDock/SCRATCH/511016/C39149-P3

>  <fragmenstein_runtime>  (893) 
20.681920766830444

>  <fragmenstein_outcome>  (893) 
too moved

>  <fragmenstein_mode>  (893) 
expansion

>  <fragmenstein_error>  (893) 


$$$$
C39159-P13
     RDKit          3D

 54 57  0  0  0  0  0  0  0  0999 V2000
   -8.1909   -7.0262   33.2195 O   0  0  0  0  0  0  0  0  0  0  0  0
   -9.3986   -7.0169   33.2075 C   0  0  0  0  0  0  0  0  0  0  0  0
  -10.3734   -8.1286   33.1228 N   0  0  0  0  0  0  0  0  0  0  0  0
  -10.1345   -9.9030   32.8836 C   0  0  0  0  0  0  0  0  0  0  0  0
   -9.1230  -11.8638   32.6960 C   0  0  0  0  0  0  0  0  0  0  0  0
   -9.6458  -13.8697   33.0963 C   0  0  0  0  0  0  0  0  0  0  0  0
  -10.5685  -15.1779   33.9298 C   0  0  0  0  0  0  0  0  0  0  0  0
  -10.7404  -16.9957   34.3955 C   0  0  0  0  0  0  0  0  0  0  0  0
  -10.1083  -18.3093   33.8286 C   0  0  0  0  0  0  0  0  0  0  0  0
  -10.6444  -19.5729   32.5295 N   0  0  0  0  0  0  0  0  0  0  0  0
  -12.0108  -20.4216   31.3787 C   0  0  0  0  0  0  0  0  0  0  0  0
  -12.1935  -21.0294   30.0282 C   0  0  0  0  0  0  0  0  0  0  0  0
  -10.9303  -21.7060   30.1370 C   0  0  0  0  0  0  0  0  0  0  0  0
  -10.2020  -21.3572   31.9415 C   0  0  0  0  0  0  0  0  0  0  0  0
   -9.2720  -16.9256   33.3861 C   0  0  0  0  0  0  0  0  0  0  0  0
   -9.1618  -15.1188   32.7661 C   0  0  0  0  0  0  0  0  0  0  0  0
   -9.9412   -5.5535   33.1713 C   0  0  0  0  0  0  0  0  0  0  0  0
  -11.1139   -5.3298   33.2069 O   0  0  0  0  0  0  0  0  0  0  0  0
   -8.8062   -4.6535   33.0370 N   0  0  0  0  0  0  0  0  0  0  0  0
   -8.7503   -3.2262   32.8101 C   0  0  0  0  0  0  0  0  0  0  0  0
   -7.3598   -2.5880   32.9280 C   0  0  0  0  0  0  0  0  0  0  0  0
   -7.2355   -1.3196   33.5537 C   0  0  0  0  0  0  0  0  0  0  0  0
   -6.0161   -0.6226   33.6167 C   0  0  0  0  0  0  0  0  0  0  0  0
   -4.9147   -1.2039   33.0398 C   0  0  0  0  0  0  0  0  0  0  0  0
   -5.0009   -2.4394   32.4415 C   0  0  0  0  0  0  0  0  0  0  0  0
   -6.2030   -3.1408   32.3501 C   0  0  0  0  0  0  0  0  0  0  0  0
   -3.8181   -2.7964   31.8594 O   0  0  0  0  0  0  0  0  0  0  0  0
   -2.9873   -1.6600   32.1833 C   0  0  0  0  0  0  0  0  0  0  0  0
   -3.6964   -0.6165   32.8860 O   0  0  0  0  0  0  0  0  0  0  0  0
  -11.3090   -7.7461   33.0535 H   0  0  0  0  0  0  0  0  0  0  0  0
   -9.9325   -9.6711   33.9672 H   0  0  0  0  0  0  0  0  0  0  0  0
  -11.2179   -9.9260   33.1786 H   0  0  0  0  0  0  0  0  0  0  0  0
   -8.3461  -11.8563   33.4878 H   0  0  0  0  0  0  0  0  0  0  0  0
   -8.2516  -11.5602   32.1007 H   0  0  0  0  0  0  0  0  0  0  0  0
  -11.4371  -15.0207   34.5755 H   0  0  0  0  0  0  0  0  0  0  0  0
  -11.6458  -17.1429   35.0069 H   0  0  0  0  0  0  0  0  0  0  0  0
  -11.0689  -20.1971   30.9543 H   0  0  0  0  0  0  0  0  0  0  0  0
  -12.7625  -20.7940   32.0167 H   0  0  0  0  0  0  0  0  0  0  0  0
  -13.0407  -21.6469   29.8265 H   0  0  0  0  0  0  0  0  0  0  0  0
  -12.3510  -20.3355   29.2190 H   0  0  0  0  0  0  0  0  0  0  0  0
  -10.9301  -22.7067   29.7851 H   0  0  0  0  0  0  0  0  0  0  0  0
  -10.4854  -21.2056   29.3063 H   0  0  0  0  0  0  0  0  0  0  0  0
   -9.3347  -21.7296   32.4705 H   0  0  0  0  0  0  0  0  0  0  0  0
  -10.8235  -22.2799   32.2741 H   0  0  0  0  0  0  0  0  0  0  0  0
   -8.2124  -17.3640   33.2861 H   0  0  0  0  0  0  0  0  0  0  0  0
   -8.3030  -14.9486   32.1114 H   0  0  0  0  0  0  0  0  0  0  0  0
   -7.9517   -5.2043   32.9606 H   0  0  0  0  0  0  0  0  0  0  0  0
   -9.4487   -2.7665   33.5181 H   0  0  0  0  0  0  0  0  0  0  0  0
   -9.1382   -3.0388   31.8026 H   0  0  0  0  0  0  0  0  0  0  0  0
   -8.1183   -0.8521   33.9908 H   0  0  0  0  0  0  0  0  0  0  0  0
   -5.9588    0.3527   34.0853 H   0  0  0  0  0  0  0  0  0  0  0  0
   -6.2506   -4.0740   31.8012 H   0  0  0  0  0  0  0  0  0  0  0  0
   -2.1537   -2.0015   32.8078 H   0  0  0  0  0  0  0  0  0  0  0  0
   -2.5838   -1.2437   31.2535 H   0  0  0  0  0  0  0  0  0  0  0  0
  1  2  2  0
  2  3  1  0
  3  4  1  0
  4  5  1  0
  5  6  1  0
  6  7  2  0
  7  8  1  0
  8  9  2  0
  9 10  1  0
 10 11  1  0
 11 12  1  0
 12 13  1  0
 13 14  1  0
  9 15  1  0
 15 16  2  0
  2 17  1  0
 17 18  2  0
 17 19  1  0
 19 20  1  0
 20 21  1  0
 21 22  2  0
 22 23  1  0
 23 24  2  0
 24 25  1  0
 25 26  2  0
 25 27  1  0
 27 28  1  0
 28 29  1  0
 16  6  1  0
 26 21  1  0
 14 10  1  0
 29 24  1  0
  3 30  1  0
  4 31  1  0
  4 32  1  0
  5 33  1  0
  5 34  1  0
  7 35  1  0
  8 36  1  0
 11 37  1  0
 11 38  1  0
 12 39  1  0
 12 40  1  0
 13 41  1  0
 13 42  1  0
 14 43  1  0
 14 44  1  0
 15 45  1  0
 16 46  1  0
 19 47  1  0
 20 48  1  0
 20 49  1  0
 22 50  1  0
 23 51  1  0
 26 52  1  0
 28 53  1  0
 28 54  1  0
M  END
>  <Energy>  (894) 
1473.0274869958782

>  <compound_id>  (894) 
39159

>  <target_id>  (894) 
1

>  <reference_id>  (894) 
13

>  <inspiration_ids>  (894) 
[13, 3]

>  <energy_score>  (894) 
1373.4327841209301

>  <distance_score>  (894) 
8.015493324915843

>  <path>  (894) 
/opt/xchem-fragalysis-2/maxwin/BulkDock/SCRATCH/511016/C39159-P13/C39159-P13.minimised.mol

>  <scratch_subdir>  (894) 
/opt/xchem-fragalysis-2/maxwin/BulkDock/SCRATCH/511016/C39159-P13

>  <fragmenstein_runtime>  (894) 
32.407575845718384

>  <fragmenstein_outcome>  (894) 
too moved

>  <fragmenstein_mode>  (894) 
expansion

>  <fragmenstein_error>  (894) 


$$$$
C39159-P3
     RDKit          3D

 54 57  0  0  0  0  0  0  0  0999 V2000
   -3.2991  -11.1356   36.3073 O   0  0  0  0  0  0  0  0  0  0  0  0
   -3.7339  -11.7280   37.2482 C   0  0  0  0  0  0  0  0  0  0  0  0
   -5.5287  -12.3716   37.3184 N   0  0  0  0  0  0  0  0  0  0  0  0
   -6.9469  -12.3999   36.0324 C   0  0  0  0  0  0  0  0  0  0  0  0
   -7.4121  -13.1123   34.3821 C   0  0  0  0  0  0  0  0  0  0  0  0
   -8.5971  -14.0812   33.6100 C   0  0  0  0  0  0  0  0  0  0  0  0
   -8.0536  -15.1586   32.8546 C   0  0  0  0  0  0  0  0  0  0  0  0
   -8.8503  -16.5109   32.4690 C   0  0  0  0  0  0  0  0  0  0  0  0
  -10.2056  -16.9541   32.5393 C   0  0  0  0  0  0  0  0  0  0  0  0
  -10.5249  -18.3256   32.1619 N   0  0  0  0  0  0  0  0  0  0  0  0
  -11.6313  -18.8631   31.3749 C   0  0  0  0  0  0  0  0  0  0  0  0
  -11.3225  -20.3020   30.9808 C   0  0  0  0  0  0  0  0  0  0  0  0
  -10.5857  -20.8645   32.1292 C   0  0  0  0  0  0  0  0  0  0  0  0
  -10.1567  -19.6395   32.8986 C   0  0  0  0  0  0  0  0  0  0  0  0
  -10.8144  -15.8269   33.2303 C   0  0  0  0  0  0  0  0  0  0  0  0
  -10.0510  -14.3606   33.7023 C   0  0  0  0  0  0  0  0  0  0  0  0
   -2.5320  -11.7458   38.5101 C   0  0  0  0  0  0  0  0  0  0  0  0
   -2.1181  -12.6881   39.1144 O   0  0  0  0  0  0  0  0  0  0  0  0
   -2.1245  -10.3428   38.5388 N   0  0  0  0  0  0  0  0  0  0  0  0
   -1.0350   -9.6801   39.2322 C   0  0  0  0  0  0  0  0  0  0  0  0
   -0.7746   -8.2446   38.6493 C   0  0  0  0  0  0  0  0  0  0  0  0
    0.4724   -7.8827   38.0701 C   0  0  0  0  0  0  0  0  0  0  0  0
    0.7224   -6.5801   37.5702 C   0  0  0  0  0  0  0  0  0  0  0  0
   -0.2952   -5.6495   37.6319 C   0  0  0  0  0  0  0  0  0  0  0  0
   -1.5226   -5.9820   38.1503 C   0  0  0  0  0  0  0  0  0  0  0  0
   -1.7781   -7.2440   38.6826 C   0  0  0  0  0  0  0  0  0  0  0  0
   -2.4165   -4.9571   38.0511 O   0  0  0  0  0  0  0  0  0  0  0  0
   -1.5623   -3.8946   37.5857 C   0  0  0  0  0  0  0  0  0  0  0  0
   -0.2506   -4.3650   37.1930 O   0  0  0  0  0  0  0  0  0  0  0  0
   -5.6448  -12.8447   38.0453 H   0  0  0  0  0  0  0  0  0  0  0  0
   -7.3399  -13.3152   36.5350 H   0  0  0  0  0  0  0  0  0  0  0  0
   -7.7974  -11.8164   36.4284 H   0  0  0  0  0  0  0  0  0  0  0  0
   -6.5329  -13.7179   34.1752 H   0  0  0  0  0  0  0  0  0  0  0  0
   -7.3830  -12.2496   33.7104 H   0  0  0  0  0  0  0  0  0  0  0  0
   -6.9805  -15.2361   32.7102 H   0  0  0  0  0  0  0  0  0  0  0  0
   -8.1425  -17.3449   32.3809 H   0  0  0  0  0  0  0  0  0  0  0  0
  -11.6682  -18.4695   30.3762 H   0  0  0  0  0  0  0  0  0  0  0  0
  -12.5524  -18.8420   31.9646 H   0  0  0  0  0  0  0  0  0  0  0  0
  -10.7205  -20.3305   30.0679 H   0  0  0  0  0  0  0  0  0  0  0  0
  -12.2126  -20.8707   30.7466 H   0  0  0  0  0  0  0  0  0  0  0  0
  -11.1960  -21.5077   32.7613 H   0  0  0  0  0  0  0  0  0  0  0  0
   -9.7359  -21.4754   31.8053 H   0  0  0  0  0  0  0  0  0  0  0  0
   -9.0772  -19.7994   33.0106 H   0  0  0  0  0  0  0  0  0  0  0  0
  -10.7013  -19.6644   33.8502 H   0  0  0  0  0  0  0  0  0  0  0  0
  -11.8502  -15.8921   33.5631 H   0  0  0  0  0  0  0  0  0  0  0  0
  -10.6971  -13.7158   34.2925 H   0  0  0  0  0  0  0  0  0  0  0  0
   -2.6428   -9.8303   37.8267 H   0  0  0  0  0  0  0  0  0  0  0  0
   -1.2942   -9.5999   40.2925 H   0  0  0  0  0  0  0  0  0  0  0  0
   -0.1390  -10.3017   39.1391 H   0  0  0  0  0  0  0  0  0  0  0  0
    1.2724   -8.6219   38.0269 H   0  0  0  0  0  0  0  0  0  0  0  0
    1.6943   -6.3227   37.1619 H   0  0  0  0  0  0  0  0  0  0  0  0
   -2.7561   -7.4654   39.1002 H   0  0  0  0  0  0  0  0  0  0  0  0
   -2.0498   -3.4086   36.7384 H   0  0  0  0  0  0  0  0  0  0  0  0
   -1.4439   -3.1563   38.3881 H   0  0  0  0  0  0  0  0  0  0  0  0
  1  2  2  0
  2  3  1  0
  3  4  1  0
  4  5  1  0
  5  6  1  0
  6  7  2  0
  7  8  1  0
  8  9  2  0
  9 10  1  0
 10 11  1  0
 11 12  1  0
 12 13  1  0
 13 14  1  0
  9 15  1  0
 15 16  2  0
  2 17  1  0
 17 18  2  0
 17 19  1  0
 19 20  1  0
 20 21  1  0
 21 22  2  0
 22 23  1  0
 23 24  2  0
 24 25  1  0
 25 26  2  0
 25 27  1  0
 27 28  1  0
 28 29  1  0
 16  6  1  0
 26 21  1  0
 14 10  1  0
 29 24  1  0
  3 30  1  0
  4 31  1  0
  4 32  1  0
  5 33  1  0
  5 34  1  0
  7 35  1  0
  8 36  1  0
 11 37  1  0
 11 38  1  0
 12 39  1  0
 12 40  1  0
 13 41  1  0
 13 42  1  0
 14 43  1  0
 14 44  1  0
 15 45  1  0
 16 46  1  0
 19 47  1  0
 20 48  1  0
 20 49  1  0
 22 50  1  0
 23 51  1  0
 26 52  1  0
 28 53  1  0
 28 54  1  0
M  END
>  <Energy>  (895) 
455.4049649657922

>  <compound_id>  (895) 
39159

>  <target_id>  (895) 
1

>  <reference_id>  (895) 
3

>  <inspiration_ids>  (895) 
[13, 3]

>  <energy_score>  (895) 
355.8102620908627

>  <distance_score>  (895) 
10.874646907657766

>  <path>  (895) 
/opt/xchem-fragalysis-2/maxwin/BulkDock/SCRATCH/511016/C39159-P3/C39159-P3.minimised.mol

>  <scratch_subdir>  (895) 
/opt/xchem-fragalysis-2/maxwin/BulkDock/SCRATCH/511016/C39159-P3

>  <fragmenstein_runtime>  (895) 
35.560940742492676

>  <fragmenstein_outcome>  (895) 
too moved

>  <fragmenstein_mode>  (895) 
expansion

>  <fragmenstein_error>  (895) 


$$$$
C39200-P13
     RDKit          3D

 37 38  0  0  0  0  0  0  0  0999 V2000
   -7.4235  -14.0304   28.4886 C   0  0  0  0  0  0  0  0  0  0  0  0
   -6.2813  -13.5975   29.7441 N   0  0  0  0  0  0  0  0  0  0  0  0
   -6.6414  -13.5620   31.2041 C   0  0  0  0  0  0  0  0  0  0  0  0
   -6.8943  -12.6097   32.2116 C   0  0  0  0  0  0  0  0  0  0  0  0
   -8.0812  -12.7445   33.0376 C   0  0  0  0  0  0  0  0  0  0  0  0
   -9.0270  -13.9223   32.9478 C   0  0  0  0  0  0  0  0  0  0  0  0
  -10.3080  -14.9579   33.6808 Cl  0  0  0  0  0  0  0  0  0  0  0  0
   -8.4470  -14.7488   32.1349 C   0  0  0  0  0  0  0  0  0  0  0  0
   -7.3005  -14.5859   31.4046 N   0  0  0  0  0  0  0  0  0  0  0  0
   -5.4308  -11.8494   29.0291 S   0  0  0  0  0  0  0  0  0  0  0  0
   -4.0177  -12.0252   29.3988 O   0  0  0  0  0  0  0  0  0  0  0  0
   -5.7323  -11.9507   27.5466 O   0  0  0  0  0  0  0  0  0  0  0  0
   -6.4769   -9.6851   29.3034 C   0  0  0  0  0  0  0  0  0  0  0  0
   -5.1320   -8.0999   29.0529 C   0  0  0  0  0  0  0  0  0  0  0  0
   -3.3601   -7.6586   29.9031 N   0  0  0  0  0  0  0  0  0  0  0  0
   -2.0015   -7.3440   29.3139 C   0  0  0  0  0  0  0  0  0  0  0  0
   -1.0725   -6.8309   30.4631 C   0  0  0  0  0  0  0  0  0  0  0  0
   -1.6866   -7.2584   31.7802 C   0  0  0  0  0  0  0  0  0  0  0  0
   -2.9042   -8.1072   31.4130 C   0  0  0  0  0  0  0  0  0  0  0  0
   -7.2478  -13.5071   27.5525 H   0  0  0  0  0  0  0  0  0  0  0  0
   -8.4666  -13.9405   28.7597 H   0  0  0  0  0  0  0  0  0  0  0  0
   -7.4295  -15.0545   28.2124 H   0  0  0  0  0  0  0  0  0  0  0  0
   -6.3314  -11.7198   32.4048 H   0  0  0  0  0  0  0  0  0  0  0  0
   -8.2396  -11.8220   33.5401 H   0  0  0  0  0  0  0  0  0  0  0  0
   -8.7069  -15.7816   32.3285 H   0  0  0  0  0  0  0  0  0  0  0  0
   -6.8717   -9.8772   30.2381 H   0  0  0  0  0  0  0  0  0  0  0  0
   -7.2310   -9.4196   28.5863 H   0  0  0  0  0  0  0  0  0  0  0  0
   -5.8330   -7.2650   29.0945 H   0  0  0  0  0  0  0  0  0  0  0  0
   -4.8714   -8.0857   27.9897 H   0  0  0  0  0  0  0  0  0  0  0  0
   -1.3957   -8.1956   28.9863 H   0  0  0  0  0  0  0  0  0  0  0  0
   -2.1389   -6.7145   28.4536 H   0  0  0  0  0  0  0  0  0  0  0  0
   -0.8969   -5.7497   30.4473 H   0  0  0  0  0  0  0  0  0  0  0  0
   -0.0785   -7.2894   30.3715 H   0  0  0  0  0  0  0  0  0  0  0  0
   -0.9668   -7.8601   32.3502 H   0  0  0  0  0  0  0  0  0  0  0  0
   -1.8846   -6.3924   32.4092 H   0  0  0  0  0  0  0  0  0  0  0  0
   -2.4548   -9.1114   31.5012 H   0  0  0  0  0  0  0  0  0  0  0  0
   -3.7708   -8.2393   32.0243 H   0  0  0  0  0  0  0  0  0  0  0  0
  1  2  1  0
  2  3  1  0
  3  4  2  0
  4  5  1  0
  5  6  2  0
  6  7  1  0
  6  8  1  0
  8  9  2  0
  2 10  1  0
 10 11  2  0
 10 12  2  0
 10 13  1  0
 13 14  1  0
 14 15  1  0
 15 16  1  0
 16 17  1  0
 17 18  1  0
 18 19  1  0
  9  3  1  0
 19 15  1  0
  1 20  1  0
  1 21  1  0
  1 22  1  0
  4 23  1  0
  5 24  1  0
  8 25  1  0
 13 26  1  0
 13 27  1  0
 14 28  1  0
 14 29  1  0
 16 30  1  0
 16 31  1  0
 17 32  1  0
 17 33  1  0
 18 34  1  0
 18 35  1  0
 19 36  1  0
 19 37  1  0
M  END
>  <Energy>  (896) 
439.00841506581094

>  <compound_id>  (896) 
39200

>  <target_id>  (896) 
1

>  <reference_id>  (896) 
13

>  <inspiration_ids>  (896) 
[13, 3]

>  <energy_score>  (896) 
442.36327723472596

>  <distance_score>  (896) 
9.51411496810412

>  <path>  (896) 
/opt/xchem-fragalysis-2/maxwin/BulkDock/SCRATCH/511016/C39200-P13/C39200-P13.minimised.mol

>  <scratch_subdir>  (896) 
/opt/xchem-fragalysis-2/maxwin/BulkDock/SCRATCH/511016/C39200-P13

>  <fragmenstein_runtime>  (896) 
21.386418342590332

>  <fragmenstein_outcome>  (896) 
too moved

>  <fragmenstein_mode>  (896) 
expansion

>  <fragmenstein_error>  (896) 


$$$$
C39200-P3
     RDKit          3D

 37 38  0  0  0  0  0  0  0  0999 V2000
   -9.2271  -16.0910   32.4932 C   0  0  0  0  0  0  0  0  0  0  0  0
   -9.7797  -14.8188   32.9890 N   0  0  0  0  0  0  0  0  0  0  0  0
  -11.0034  -14.9148   33.8804 C   0  0  0  0  0  0  0  0  0  0  0  0
  -11.8729  -16.0091   33.8688 C   0  0  0  0  0  0  0  0  0  0  0  0
  -13.0689  -15.9717   34.5804 C   0  0  0  0  0  0  0  0  0  0  0  0
  -13.3230  -14.8847   35.3886 C   0  0  0  0  0  0  0  0  0  0  0  0
  -14.7979  -14.7235   36.2495 Cl  0  0  0  0  0  0  0  0  0  0  0  0
  -12.3457  -13.9182   35.4818 C   0  0  0  0  0  0  0  0  0  0  0  0
  -11.2005  -13.9245   34.7651 N   0  0  0  0  0  0  0  0  0  0  0  0
   -9.1416  -13.2799   32.8668 S   0  0  0  0  0  0  0  0  0  0  0  0
   -8.4997  -13.0426   34.1596 O   0  0  0  0  0  0  0  0  0  0  0  0
  -10.3541  -12.5568   32.5077 O   0  0  0  0  0  0  0  0  0  0  0  0
   -7.6669  -12.8005   31.5610 C   0  0  0  0  0  0  0  0  0  0  0  0
   -8.0381  -11.5874   30.2385 C   0  0  0  0  0  0  0  0  0  0  0  0
   -7.1758  -10.7168   28.9628 N   0  0  0  0  0  0  0  0  0  0  0  0
   -6.6386   -9.0288   28.7562 C   0  0  0  0  0  0  0  0  0  0  0  0
   -5.3158   -9.1234   28.1567 C   0  0  0  0  0  0  0  0  0  0  0  0
   -5.4700  -10.2848   27.3677 C   0  0  0  0  0  0  0  0  0  0  0  0
   -6.4462  -11.3669   27.9144 C   0  0  0  0  0  0  0  0  0  0  0  0
   -9.8303  -16.8676   32.9122 H   0  0  0  0  0  0  0  0  0  0  0  0
   -9.4896  -16.5153   31.5660 H   0  0  0  0  0  0  0  0  0  0  0  0
   -8.1667  -16.1945   32.7285 H   0  0  0  0  0  0  0  0  0  0  0  0
  -11.6825  -16.8964   33.2850 H   0  0  0  0  0  0  0  0  0  0  0  0
  -13.7811  -16.7844   34.4800 H   0  0  0  0  0  0  0  0  0  0  0  0
  -12.4636  -13.0584   36.1335 H   0  0  0  0  0  0  0  0  0  0  0  0
   -7.1385  -13.7286   31.3349 H   0  0  0  0  0  0  0  0  0  0  0  0
   -6.9798  -12.2779   32.2402 H   0  0  0  0  0  0  0  0  0  0  0  0
   -8.0143  -10.6661   30.7596 H   0  0  0  0  0  0  0  0  0  0  0  0
   -9.0673  -11.7501   30.0151 H   0  0  0  0  0  0  0  0  0  0  0  0
   -7.0136   -8.3571   27.9509 H   0  0  0  0  0  0  0  0  0  0  0  0
   -6.8000   -8.3358   29.5230 H   0  0  0  0  0  0  0  0  0  0  0  0
   -4.5514   -8.8709   27.4107 H   0  0  0  0  0  0  0  0  0  0  0  0
   -4.9394   -8.1363   28.4079 H   0  0  0  0  0  0  0  0  0  0  0  0
   -5.8542   -9.8756   26.4435 H   0  0  0  0  0  0  0  0  0  0  0  0
   -4.4522  -10.6545   27.2962 H   0  0  0  0  0  0  0  0  0  0  0  0
   -7.0883  -11.6499   27.0705 H   0  0  0  0  0  0  0  0  0  0  0  0
   -6.0090  -12.3009   28.2601 H   0  0  0  0  0  0  0  0  0  0  0  0
  1  2  1  0
  2  3  1  0
  3  4  2  0
  4  5  1  0
  5  6  2  0
  6  7  1  0
  6  8  1  0
  8  9  2  0
  2 10  1  0
 10 11  2  0
 10 12  2  0
 10 13  1  0
 13 14  1  0
 14 15  1  0
 15 16  1  0
 16 17  1  0
 17 18  1  0
 18 19  1  0
  9  3  1  0
 19 15  1  0
  1 20  1  0
  1 21  1  0
  1 22  1  0
  4 23  1  0
  5 24  1  0
  8 25  1  0
 13 26  1  0
 13 27  1  0
 14 28  1  0
 14 29  1  0
 16 30  1  0
 16 31  1  0
 17 32  1  0
 17 33  1  0
 18 34  1  0
 18 35  1  0
 19 36  1  0
 19 37  1  0
M  END
>  <Energy>  (897) 
258.09549901630919

>  <compound_id>  (897) 
39200

>  <target_id>  (897) 
1

>  <reference_id>  (897) 
3

>  <inspiration_ids>  (897) 
[13, 3]

>  <energy_score>  (897) 
261.4503611852336

>  <distance_score>  (897) 
10.149571175516101

>  <path>  (897) 
/opt/xchem-fragalysis-2/maxwin/BulkDock/SCRATCH/511016/C39200-P3/C39200-P3.minimised.mol

>  <scratch_subdir>  (897) 
/opt/xchem-fragalysis-2/maxwin/BulkDock/SCRATCH/511016/C39200-P3

>  <fragmenstein_runtime>  (897) 
12.78026294708252

>  <fragmenstein_outcome>  (897) 
too moved

>  <fragmenstein_mode>  (897) 
expansion

>  <fragmenstein_error>  (897) 


$$$$
C39214-P13
     RDKit          3D

 48 51  0  0  0  0  0  0  0  0999 V2000
   -7.7310  -19.7505   34.0826 C   0  0  0  0  0  0  0  0  0  0  0  0
   -6.9642  -19.2208   32.7914 N   0  0  0  0  0  0  0  0  0  0  0  0
   -6.8979  -17.5772   32.2391 S   0  0  0  0  0  0  0  0  0  0  0  0
   -7.9906  -17.2636   33.1121 O   0  0  0  0  0  0  0  0  0  0  0  0
   -5.6558  -17.7932   32.8769 O   0  0  0  0  0  0  0  0  0  0  0  0
   -5.8995  -15.9024   30.7386 C   0  0  0  0  0  0  0  0  0  0  0  0
   -6.3578  -14.1723   29.6833 C   0  0  0  0  0  0  0  0  0  0  0  0
   -6.8065  -13.0809   28.1007 N   0  0  0  0  0  0  0  0  0  0  0  0
   -5.8365  -11.8168   27.1078 C   0  0  0  0  0  0  0  0  0  0  0  0
   -6.3231   -9.5696   27.2561 C   0  0  0  0  0  0  0  0  0  0  0  0
   -7.2998   -8.9658   26.5782 C   0  0  0  0  0  0  0  0  0  0  0  0
   -6.3045   -7.5397   25.9633 N   0  0  0  0  0  0  0  0  0  0  0  0
   -5.5205   -7.0792   27.0344 C   0  0  0  0  0  0  0  0  0  0  0  0
   -6.2843   -5.6171   27.8611 C   0  0  0  0  0  0  0  0  0  0  0  0
   -6.9472   -5.1056   28.8765 C   0  0  0  0  0  0  0  0  0  0  0  0
   -6.5336   -6.1209   29.5788 C   0  0  0  0  0  0  0  0  0  0  0  0
   -5.5854   -7.5721   29.2409 C   0  0  0  0  0  0  0  0  0  0  0  0
   -5.3345   -8.1832   27.8972 C   0  0  0  0  0  0  0  0  0  0  0  0
   -6.4625  -11.9082   25.9323 N   0  0  0  0  0  0  0  0  0  0  0  0
   -6.7738  -13.1233   25.8992 N   0  0  0  0  0  0  0  0  0  0  0  0
   -7.3697  -13.4855   26.9352 C   0  0  0  0  0  0  0  0  0  0  0  0
   -8.3882  -14.2343   26.7705 N   0  0  0  0  0  0  0  0  0  0  0  0
   -8.7916  -14.5743   27.9334 C   0  0  0  0  0  0  0  0  0  0  0  0
   -8.5665  -16.2583   27.6616 C   0  0  0  0  0  0  0  0  0  0  0  0
   -9.4487  -16.2209   26.5196 C   0  0  0  0  0  0  0  0  0  0  0  0
   -8.5626  -15.2857   25.8629 C   0  0  0  0  0  0  0  0  0  0  0  0
   -7.1857  -19.6998   35.0162 H   0  0  0  0  0  0  0  0  0  0  0  0
   -7.8283  -20.8388   33.9928 H   0  0  0  0  0  0  0  0  0  0  0  0
   -8.7167  -19.2918   34.2172 H   0  0  0  0  0  0  0  0  0  0  0  0
   -6.0091  -19.4426   33.0720 H   0  0  0  0  0  0  0  0  0  0  0  0
   -5.1148  -15.5052   31.3855 H   0  0  0  0  0  0  0  0  0  0  0  0
   -5.4569  -16.4935   29.9414 H   0  0  0  0  0  0  0  0  0  0  0  0
   -7.1303  -13.8368   30.3305 H   0  0  0  0  0  0  0  0  0  0  0  0
   -6.5528  -14.8741   28.8900 H   0  0  0  0  0  0  0  0  0  0  0  0
   -7.5872   -9.6301   25.8129 H   0  0  0  0  0  0  0  0  0  0  0  0
   -6.3784   -7.1902   25.0098 H   0  0  0  0  0  0  0  0  0  0  0  0
   -5.5798   -4.7206   28.1516 H   0  0  0  0  0  0  0  0  0  0  0  0
   -7.2920   -4.1404   29.1722 H   0  0  0  0  0  0  0  0  0  0  0  0
   -6.9445   -5.9784   30.6353 H   0  0  0  0  0  0  0  0  0  0  0  0
   -5.3019   -8.1028   30.1375 H   0  0  0  0  0  0  0  0  0  0  0  0
   -9.8243  -14.1303   27.8463 H   0  0  0  0  0  0  0  0  0  0  0  0
   -8.4986  -14.1923   28.8786 H   0  0  0  0  0  0  0  0  0  0  0  0
   -8.7173  -17.1945   28.1804 H   0  0  0  0  0  0  0  0  0  0  0  0
   -7.5569  -16.4831   27.8016 H   0  0  0  0  0  0  0  0  0  0  0  0
  -10.4146  -15.7703   26.7710 H   0  0  0  0  0  0  0  0  0  0  0  0
   -9.8028  -17.0607   26.0008 H   0  0  0  0  0  0  0  0  0  0  0  0
   -9.0688  -15.1780   25.0044 H   0  0  0  0  0  0  0  0  0  0  0  0
   -7.6770  -15.4276   25.3565 H   0  0  0  0  0  0  0  0  0  0  0  0
  1  2  1  0
  2  3  1  0
  3  4  2  0
  3  5  2  0
  3  6  1  0
  6  7  1  0
  7  8  1  0
  8  9  1  0
  9 10  1  0
 10 11  2  0
 11 12  1  0
 12 13  1  0
 13 14  2  0
 14 15  1  0
 15 16  2  0
 16 17  1  0
 17 18  2  0
  9 19  2  0
 19 20  1  0
 20 21  2  0
 21 22  1  0
 22 23  1  0
 23 24  1  0
 24 25  1  0
 25 26  1  0
 21  8  1  0
 26 22  1  0
 18 10  1  0
 18 13  1  0
  1 27  1  0
  1 28  1  0
  1 29  1  0
  2 30  1  0
  6 31  1  0
  6 32  1  0
  7 33  1  0
  7 34  1  0
 11 35  1  0
 12 36  1  0
 14 37  1  0
 15 38  1  0
 16 39  1  0
 17 40  1  0
 23 41  1  0
 23 42  1  0
 24 43  1  0
 24 44  1  0
 25 45  1  0
 25 46  1  0
 26 47  1  0
 26 48  1  0
M  END
>  <Energy>  (898) 
1177.3227718276696

>  <compound_id>  (898) 
39214

>  <target_id>  (898) 
1

>  <reference_id>  (898) 
13

>  <inspiration_ids>  (898) 
[13, 3]

>  <energy_score>  (898) 
1192.930222760392

>  <distance_score>  (898) 
8.907951053948144

>  <path>  (898) 
/opt/xchem-fragalysis-2/maxwin/BulkDock/SCRATCH/511016/C39214-P13/C39214-P13.minimised.mol

>  <scratch_subdir>  (898) 
/opt/xchem-fragalysis-2/maxwin/BulkDock/SCRATCH/511016/C39214-P13

>  <fragmenstein_runtime>  (898) 
22.286437273025513

>  <fragmenstein_outcome>  (898) 
too moved

>  <fragmenstein_mode>  (898) 
expansion

>  <fragmenstein_error>  (898) 


$$$$
C39214-P3
     RDKit          3D

 48 51  0  0  0  0  0  0  0  0999 V2000
   -9.7193  -22.1927   32.2565 C   0  0  0  0  0  0  0  0  0  0  0  0
  -11.0068  -21.4914   32.0667 N   0  0  0  0  0  0  0  0  0  0  0  0
  -10.9447  -19.8365   31.7357 S   0  0  0  0  0  0  0  0  0  0  0  0
   -9.7073  -19.4271   32.3159 O   0  0  0  0  0  0  0  0  0  0  0  0
  -12.1877  -19.2247   32.1161 O   0  0  0  0  0  0  0  0  0  0  0  0
  -10.7847  -19.8044   29.9599 C   0  0  0  0  0  0  0  0  0  0  0  0
  -10.1608  -18.4016   29.3369 C   0  0  0  0  0  0  0  0  0  0  0  0
   -9.2228  -17.7382   27.8060 N   0  0  0  0  0  0  0  0  0  0  0  0
   -7.9862  -16.3965   27.2799 C   0  0  0  0  0  0  0  0  0  0  0  0
   -6.2649  -14.8441   27.4749 C   0  0  0  0  0  0  0  0  0  0  0  0
   -6.4338  -13.4227   27.2958 C   0  0  0  0  0  0  0  0  0  0  0  0
   -5.6613  -12.8101   28.2612 N   0  0  0  0  0  0  0  0  0  0  0  0
   -4.0059  -12.9233   27.8217 C   0  0  0  0  0  0  0  0  0  0  0  0
   -2.9257  -11.8888   27.1168 C   0  0  0  0  0  0  0  0  0  0  0  0
   -2.0522  -12.1100   25.9875 C   0  0  0  0  0  0  0  0  0  0  0  0
   -2.1522  -13.3572   25.4088 C   0  0  0  0  0  0  0  0  0  0  0  0
   -3.2504  -14.2849   25.9560 C   0  0  0  0  0  0  0  0  0  0  0  0
   -4.5296  -13.9478   27.0793 C   0  0  0  0  0  0  0  0  0  0  0  0
   -7.1840  -17.8840   26.9294 N   0  0  0  0  0  0  0  0  0  0  0  0
   -7.8186  -19.1291   27.1903 N   0  0  0  0  0  0  0  0  0  0  0  0
   -9.4080  -19.0096   27.3969 C   0  0  0  0  0  0  0  0  0  0  0  0
  -10.5329  -20.1389   27.6132 N   0  0  0  0  0  0  0  0  0  0  0  0
  -10.2354  -21.6224   27.7194 C   0  0  0  0  0  0  0  0  0  0  0  0
  -11.0664  -22.3720   26.6881 C   0  0  0  0  0  0  0  0  0  0  0  0
  -12.3335  -21.5768   26.7506 C   0  0  0  0  0  0  0  0  0  0  0  0
  -11.8533  -20.1329   26.9262 C   0  0  0  0  0  0  0  0  0  0  0  0
   -9.9109  -23.2660   32.3356 H   0  0  0  0  0  0  0  0  0  0  0  0
   -9.2364  -21.8700   33.1828 H   0  0  0  0  0  0  0  0  0  0  0  0
   -9.0543  -22.0439   31.4040 H   0  0  0  0  0  0  0  0  0  0  0  0
  -11.6319  -21.5963   32.8764 H   0  0  0  0  0  0  0  0  0  0  0  0
  -10.2259  -20.7024   29.7909 H   0  0  0  0  0  0  0  0  0  0  0  0
  -11.8114  -19.9684   29.6283 H   0  0  0  0  0  0  0  0  0  0  0  0
   -9.9043  -17.8801   30.2427 H   0  0  0  0  0  0  0  0  0  0  0  0
  -11.1608  -18.2498   28.9302 H   0  0  0  0  0  0  0  0  0  0  0  0
   -7.1698  -12.8122   26.7600 H   0  0  0  0  0  0  0  0  0  0  0  0
   -5.9649  -11.8599   28.3807 H   0  0  0  0  0  0  0  0  0  0  0  0
   -3.1947  -10.8204   27.1371 H   0  0  0  0  0  0  0  0  0  0  0  0
   -1.4178  -11.3282   25.5926 H   0  0  0  0  0  0  0  0  0  0  0  0
   -1.4916  -13.7181   24.6298 H   0  0  0  0  0  0  0  0  0  0  0  0
   -3.0961  -15.2890   25.6242 H   0  0  0  0  0  0  0  0  0  0  0  0
   -9.1907  -21.7906   27.6467 H   0  0  0  0  0  0  0  0  0  0  0  0
  -10.5602  -22.0465   28.6743 H   0  0  0  0  0  0  0  0  0  0  0  0
  -11.2217  -23.4195   26.9645 H   0  0  0  0  0  0  0  0  0  0  0  0
  -10.6359  -22.3645   25.6842 H   0  0  0  0  0  0  0  0  0  0  0  0
  -12.9657  -21.7022   25.8664 H   0  0  0  0  0  0  0  0  0  0  0  0
  -12.9085  -21.9024   27.6154 H   0  0  0  0  0  0  0  0  0  0  0  0
  -12.5631  -19.6288   27.5664 H   0  0  0  0  0  0  0  0  0  0  0  0
  -11.8186  -19.7353   25.9177 H   0  0  0  0  0  0  0  0  0  0  0  0
  1  2  1  0
  2  3  1  0
  3  4  2  0
  3  5  2  0
  3  6  1  0
  6  7  1  0
  7  8  1  0
  8  9  1  0
  9 10  1  0
 10 11  2  0
 11 12  1  0
 12 13  1  0
 13 14  2  0
 14 15  1  0
 15 16  2  0
 16 17  1  0
 17 18  2  0
  9 19  2  0
 19 20  1  0
 20 21  2  0
 21 22  1  0
 22 23  1  0
 23 24  1  0
 24 25  1  0
 25 26  1  0
 21  8  1  0
 26 22  1  0
 18 10  1  0
 18 13  1  0
  1 27  1  0
  1 28  1  0
  1 29  1  0
  2 30  1  0
  6 31  1  0
  6 32  1  0
  7 33  1  0
  7 34  1  0
 11 35  1  0
 12 36  1  0
 14 37  1  0
 15 38  1  0
 16 39  1  0
 17 40  1  0
 23 41  1  0
 23 42  1  0
 24 43  1  0
 24 44  1  0
 25 45  1  0
 25 46  1  0
 26 47  1  0
 26 48  1  0
M  END
>  <Energy>  (899) 
893.49300597051229

>  <compound_id>  (899) 
39214

>  <target_id>  (899) 
1

>  <reference_id>  (899) 
3

>  <inspiration_ids>  (899) 
[13, 3]

>  <energy_score>  (899) 
909.1004569032413

>  <distance_score>  (899) 
9.634257708388821

>  <path>  (899) 
/opt/xchem-fragalysis-2/maxwin/BulkDock/SCRATCH/511016/C39214-P3/C39214-P3.minimised.mol

>  <scratch_subdir>  (899) 
/opt/xchem-fragalysis-2/maxwin/BulkDock/SCRATCH/511016/C39214-P3

>  <fragmenstein_runtime>  (899) 
24.375349044799805

>  <fragmenstein_outcome>  (899) 
too moved

>  <fragmenstein_mode>  (899) 
expansion

>  <fragmenstein_error>  (899) 


$$$$
C39222-P13
     RDKit          3D

 50 53  0  0  0  0  0  0  0  0999 V2000
  -10.8298  -23.4708   31.8813 C   0  0  0  0  0  0  0  0  0  0  0  0
  -11.3679  -22.6302   30.4333 N   0  0  0  0  0  0  0  0  0  0  0  0
  -11.8136  -21.2219   29.8599 S   0  0  0  0  0  0  0  0  0  0  0  0
  -12.2357  -20.7018   31.0967 O   0  0  0  0  0  0  0  0  0  0  0  0
  -12.8169  -21.3224   28.8892 O   0  0  0  0  0  0  0  0  0  0  0  0
  -10.4050  -20.4156   29.5063 C   0  0  0  0  0  0  0  0  0  0  0  0
   -8.6932  -19.4551   28.6130 C   0  0  0  0  0  0  0  0  0  0  0  0
   -8.2522  -17.6512   28.2843 N   0  0  0  0  0  0  0  0  0  0  0  0
   -8.2615  -15.8479   27.7026 C   0  0  0  0  0  0  0  0  0  0  0  0
   -7.5984  -13.8171   27.8198 C   0  0  0  0  0  0  0  0  0  0  0  0
   -7.0066  -12.5738   26.4734 C   0  0  0  0  0  0  0  0  0  0  0  0
   -6.3238  -10.8743   26.3414 O   0  0  0  0  0  0  0  0  0  0  0  0
   -6.6002   -9.4593   27.4910 C   0  0  0  0  0  0  0  0  0  0  0  0
   -5.6672   -8.5021   27.5561 C   0  0  0  0  0  0  0  0  0  0  0  0
   -5.7176   -8.1960   28.8283 C   0  0  0  0  0  0  0  0  0  0  0  0
   -6.4729   -9.2650   29.7489 C   0  0  0  0  0  0  0  0  0  0  0  0
   -7.5167   -9.9923   29.7728 C   0  0  0  0  0  0  0  0  0  0  0  0
   -6.6510  -10.4881   29.0581 C   0  0  0  0  0  0  0  0  0  0  0  0
   -6.4692  -12.3105   28.4285 O   0  0  0  0  0  0  0  0  0  0  0  0
   -9.2266  -16.0907   26.7950 N   0  0  0  0  0  0  0  0  0  0  0  0
   -9.9087  -17.3728   26.9148 N   0  0  0  0  0  0  0  0  0  0  0  0
   -9.5080  -18.5942   27.7190 C   0  0  0  0  0  0  0  0  0  0  0  0
   -9.8940  -20.5637   27.5127 N   0  0  0  0  0  0  0  0  0  0  0  0
   -9.6106  -22.3388   28.2002 C   0  0  0  0  0  0  0  0  0  0  0  0
  -10.3204  -23.4696   27.4198 C   0  0  0  0  0  0  0  0  0  0  0  0
  -11.5885  -22.8672   26.9176 C   0  0  0  0  0  0  0  0  0  0  0  0
  -11.4566  -21.3103   26.7978 C   0  0  0  0  0  0  0  0  0  0  0  0
  -10.5934  -22.6623   32.4990 H   0  0  0  0  0  0  0  0  0  0  0  0
   -9.9114  -24.0683   31.7349 H   0  0  0  0  0  0  0  0  0  0  0  0
  -11.2718  -24.2916   32.3540 H   0  0  0  0  0  0  0  0  0  0  0  0
  -12.3822  -22.8755   30.3890 H   0  0  0  0  0  0  0  0  0  0  0  0
  -10.9265  -19.5663   29.5349 H   0  0  0  0  0  0  0  0  0  0  0  0
  -10.3213  -20.8268   30.5010 H   0  0  0  0  0  0  0  0  0  0  0  0
   -8.0671  -20.3951   28.0202 H   0  0  0  0  0  0  0  0  0  0  0  0
   -8.0736  -19.0392   29.5167 H   0  0  0  0  0  0  0  0  0  0  0  0
   -8.6329  -13.5110   27.9152 H   0  0  0  0  0  0  0  0  0  0  0  0
   -7.8898  -12.0341   26.2509 H   0  0  0  0  0  0  0  0  0  0  0  0
   -6.5973  -13.0034   25.6229 H   0  0  0  0  0  0  0  0  0  0  0  0
   -4.7273   -8.2267   27.1836 H   0  0  0  0  0  0  0  0  0  0  0  0
   -4.7643   -7.7956   29.0982 H   0  0  0  0  0  0  0  0  0  0  0  0
   -6.0403   -8.9798   30.7719 H   0  0  0  0  0  0  0  0  0  0  0  0
   -8.4455   -9.6268   29.2950 H   0  0  0  0  0  0  0  0  0  0  0  0
   -8.5201  -22.5458   28.1545 H   0  0  0  0  0  0  0  0  0  0  0  0
  -10.1467  -22.4511   29.0520 H   0  0  0  0  0  0  0  0  0  0  0  0
  -10.4086  -24.2903   28.1032 H   0  0  0  0  0  0  0  0  0  0  0  0
   -9.7372  -23.9505   26.6319 H   0  0  0  0  0  0  0  0  0  0  0  0
  -11.8735  -23.2927   25.9502 H   0  0  0  0  0  0  0  0  0  0  0  0
  -12.3879  -23.1712   27.5693 H   0  0  0  0  0  0  0  0  0  0  0  0
  -11.6901  -20.9668   25.7713 H   0  0  0  0  0  0  0  0  0  0  0  0
  -12.3066  -20.8962   27.2289 H   0  0  0  0  0  0  0  0  0  0  0  0
  1  2  1  0
  2  3  1  0
  3  4  2  0
  3  5  2  0
  3  6  1  0
  6  7  1  0
  7  8  1  0
  8  9  1  0
  9 10  1  0
 10 11  1  0
 11 12  1  0
 12 13  1  0
 13 14  2  0
 14 15  1  0
 15 16  2  0
 16 17  1  0
 17 18  2  0
 18 19  1  0
  9 20  2  0
 20 21  1  0
 21 22  2  0
 22 23  1  0
 23 24  1  0
 24 25  1  0
 25 26  1  0
 26 27  1  0
 22  8  1  0
 27 23  1  0
 19 10  1  0
 18 13  1  0
  1 28  1  0
  1 29  1  0
  1 30  1  0
  2 31  1  0
  6 32  1  0
  6 33  1  0
  7 34  1  0
  7 35  1  0
 10 36  1  0
 11 37  1  0
 11 38  1  0
 14 39  1  0
 15 40  1  0
 16 41  1  0
 17 42  1  0
 24 43  1  0
 24 44  1  0
 25 45  1  0
 25 46  1  0
 26 47  1  0
 26 48  1  0
 27 49  1  0
 27 50  1  0
M  END
>  <Energy>  (900) 
2061.6510197603598

>  <compound_id>  (900) 
39222

>  <target_id>  (900) 
1

>  <reference_id>  (900) 
13

>  <inspiration_ids>  (900) 
[13, 3]

>  <energy_score>  (900) 
2045.1526594962534

>  <distance_score>  (900) 
8.432775906690575

>  <path>  (900) 
/opt/xchem-fragalysis-2/maxwin/BulkDock/SCRATCH/511016/C39222-P13/C39222-P13.minimised.mol

>  <scratch_subdir>  (900) 
/opt/xchem-fragalysis-2/maxwin/BulkDock/SCRATCH/511016/C39222-P13

>  <fragmenstein_runtime>  (900) 
24.39656114578247

>  <fragmenstein_outcome>  (900) 
too moved

>  <fragmenstein_mode>  (900) 
expansion

>  <fragmenstein_error>  (900) 


$$$$
C39222-P3
     RDKit          3D

 50 53  0  0  0  0  0  0  0  0999 V2000
   -8.2991  -22.5155   32.3921 C   0  0  0  0  0  0  0  0  0  0  0  0
   -8.6610  -21.1829   31.8553 N   0  0  0  0  0  0  0  0  0  0  0  0
   -8.7030  -19.8213   32.8558 S   0  0  0  0  0  0  0  0  0  0  0  0
   -8.4271  -20.6285   34.0075 O   0  0  0  0  0  0  0  0  0  0  0  0
  -10.0846  -19.4811   32.5093 O   0  0  0  0  0  0  0  0  0  0  0  0
   -7.3860  -17.9006   32.4965 C   0  0  0  0  0  0  0  0  0  0  0  0
   -6.7066  -16.0316   32.8723 C   0  0  0  0  0  0  0  0  0  0  0  0
   -6.5053  -14.2011   32.4189 N   0  0  0  0  0  0  0  0  0  0  0  0
   -5.8704  -13.2164   30.9910 C   0  0  0  0  0  0  0  0  0  0  0  0
   -6.3006  -12.2994   29.2103 C   0  0  0  0  0  0  0  0  0  0  0  0
   -7.4127  -11.1780   29.1895 C   0  0  0  0  0  0  0  0  0  0  0  0
   -7.1863   -9.4857   29.2281 O   0  0  0  0  0  0  0  0  0  0  0  0
   -6.1458   -8.7674   28.5093 C   0  0  0  0  0  0  0  0  0  0  0  0
   -5.6438   -7.2191   28.9460 C   0  0  0  0  0  0  0  0  0  0  0  0
   -4.2755   -6.7355   28.5562 C   0  0  0  0  0  0  0  0  0  0  0  0
   -3.5273   -7.7306   27.7674 C   0  0  0  0  0  0  0  0  0  0  0  0
   -4.1872   -9.1479   27.2932 C   0  0  0  0  0  0  0  0  0  0  0  0
   -5.4201   -9.6979   27.7661 C   0  0  0  0  0  0  0  0  0  0  0  0
   -5.6276  -11.1452   27.9234 O   0  0  0  0  0  0  0  0  0  0  0  0
   -6.0415  -14.4844   30.7916 N   0  0  0  0  0  0  0  0  0  0  0  0
   -7.3318  -14.4860   31.0834 N   0  0  0  0  0  0  0  0  0  0  0  0
   -7.7951  -13.8659   32.1796 C   0  0  0  0  0  0  0  0  0  0  0  0
   -8.9249  -14.2280   32.9116 N   0  0  0  0  0  0  0  0  0  0  0  0
   -9.7763  -13.2097   33.4985 C   0  0  0  0  0  0  0  0  0  0  0  0
  -10.7944  -13.9551   34.3622 C   0  0  0  0  0  0  0  0  0  0  0  0
  -11.0157  -15.3002   33.6869 C   0  0  0  0  0  0  0  0  0  0  0  0
   -9.7508  -15.4727   32.7524 C   0  0  0  0  0  0  0  0  0  0  0  0
   -9.0852  -22.8772   33.0612 H   0  0  0  0  0  0  0  0  0  0  0  0
   -8.2418  -23.2148   31.5535 H   0  0  0  0  0  0  0  0  0  0  0  0
   -7.3329  -22.4960   32.8944 H   0  0  0  0  0  0  0  0  0  0  0  0
   -9.6147  -21.2312   31.4803 H   0  0  0  0  0  0  0  0  0  0  0  0
   -6.9731  -18.3939   33.3108 H   0  0  0  0  0  0  0  0  0  0  0  0
   -6.5947  -18.1842   31.7971 H   0  0  0  0  0  0  0  0  0  0  0  0
   -7.0769  -15.7289   33.8472 H   0  0  0  0  0  0  0  0  0  0  0  0
   -5.6201  -16.1487   32.7362 H   0  0  0  0  0  0  0  0  0  0  0  0
   -6.0357  -13.1200   28.5137 H   0  0  0  0  0  0  0  0  0  0  0  0
   -7.6581  -11.2564   28.1715 H   0  0  0  0  0  0  0  0  0  0  0  0
   -8.1447  -11.4533   29.9647 H   0  0  0  0  0  0  0  0  0  0  0  0
   -6.1385   -6.6538   29.7205 H   0  0  0  0  0  0  0  0  0  0  0  0
   -3.8656   -5.7879   28.8767 H   0  0  0  0  0  0  0  0  0  0  0  0
   -2.5056   -7.5401   27.4241 H   0  0  0  0  0  0  0  0  0  0  0  0
   -3.6540   -9.7370   26.5857 H   0  0  0  0  0  0  0  0  0  0  0  0
   -9.2045  -12.5142   34.1209 H   0  0  0  0  0  0  0  0  0  0  0  0
  -10.3210  -12.6595   32.7289 H   0  0  0  0  0  0  0  0  0  0  0  0
  -11.7250  -13.3866   34.4620 H   0  0  0  0  0  0  0  0  0  0  0  0
  -10.4009  -14.0866   35.3735 H   0  0  0  0  0  0  0  0  0  0  0  0
  -11.1918  -16.1090   34.3991 H   0  0  0  0  0  0  0  0  0  0  0  0
  -11.9719  -15.2529   33.1745 H   0  0  0  0  0  0  0  0  0  0  0  0
   -9.9844  -16.1384   31.9462 H   0  0  0  0  0  0  0  0  0  0  0  0
   -9.0446  -16.2886   32.8564 H   0  0  0  0  0  0  0  0  0  0  0  0
  1  2  1  0
  2  3  1  0
  3  4  2  0
  3  5  2  0
  3  6  1  0
  6  7  1  0
  7  8  1  0
  8  9  1  0
  9 10  1  0
 10 11  1  0
 11 12  1  0
 12 13  1  0
 13 14  2  0
 14 15  1  0
 15 16  2  0
 16 17  1  0
 17 18  2  0
 18 19  1  0
  9 20  2  0
 20 21  1  0
 21 22  2  0
 22 23  1  0
 23 24  1  0
 24 25  1  0
 25 26  1  0
 26 27  1  0
 22  8  1  0
 27 23  1  0
 19 10  1  0
 18 13  1  0
  1 28  1  0
  1 29  1  0
  1 30  1  0
  2 31  1  0
  6 32  1  0
  6 33  1  0
  7 34  1  0
  7 35  1  0
 10 36  1  0
 11 37  1  0
 11 38  1  0
 14 39  1  0
 15 40  1  0
 16 41  1  0
 17 42  1  0
 24 43  1  0
 24 44  1  0
 25 45  1  0
 25 46  1  0
 26 47  1  0
 26 48  1  0
 27 49  1  0
 27 50  1  0
M  END
>  <Energy>  (901) 
909.18091886392756

>  <compound_id>  (901) 
39222

>  <target_id>  (901) 
1

>  <reference_id>  (901) 
3

>  <inspiration_ids>  (901) 
[13, 3]

>  <energy_score>  (901) 
892.6825585997859

>  <distance_score>  (901) 
9.511389250217317

>  <path>  (901) 
/opt/xchem-fragalysis-2/maxwin/BulkDock/SCRATCH/511016/C39222-P3/C39222-P3.minimised.mol

>  <scratch_subdir>  (901) 
/opt/xchem-fragalysis-2/maxwin/BulkDock/SCRATCH/511016/C39222-P3

>  <fragmenstein_runtime>  (901) 
20.700782775878906

>  <fragmenstein_outcome>  (901) 
too moved

>  <fragmenstein_mode>  (901) 
expansion

>  <fragmenstein_error>  (901) 


$$$$
C39226-P13
     RDKit          3D

 49 52  0  0  0  0  0  0  0  0999 V2000
   -7.7542  -19.7304   34.0964 C   0  0  0  0  0  0  0  0  0  0  0  0
   -7.0008  -19.1505   32.8106 N   0  0  0  0  0  0  0  0  0  0  0  0
   -6.8951  -17.5119   32.3267 S   0  0  0  0  0  0  0  0  0  0  0  0
   -8.0285  -17.2772   33.1906 O   0  0  0  0  0  0  0  0  0  0  0  0
   -5.6536  -17.8821   32.9006 O   0  0  0  0  0  0  0  0  0  0  0  0
   -5.7939  -15.6191   31.1989 C   0  0  0  0  0  0  0  0  0  0  0  0
   -6.1865  -13.7494   30.3791 C   0  0  0  0  0  0  0  0  0  0  0  0
   -5.7841  -12.1984   29.1602 N   0  0  0  0  0  0  0  0  0  0  0  0
   -6.3413  -10.2287   29.1596 C   0  0  0  0  0  0  0  0  0  0  0  0
   -5.3104   -8.2830   28.7881 C   0  0  0  0  0  0  0  0  0  0  0  0
   -5.8939   -6.9497   29.4260 N   0  0  0  0  0  0  0  0  0  0  0  0
   -5.8296   -5.1228   29.1490 N   0  0  0  0  0  0  0  0  0  0  0  0
   -4.3915   -4.0587   28.5595 C   0  0  0  0  0  0  0  0  0  0  0  0
   -4.7782   -3.0243   28.0288 O   0  0  0  0  0  0  0  0  0  0  0  0
   -2.5614   -5.4516   28.4363 C   0  0  0  0  0  0  0  0  0  0  0  0
   -1.4293   -4.5410   28.7272 C   0  0  0  0  0  0  0  0  0  0  0  0
   -1.2295   -4.3438   27.4610 C   0  0  0  0  0  0  0  0  0  0  0  0
   -1.9656   -5.5959   26.3509 C   0  0  0  0  0  0  0  0  0  0  0  0
   -2.7811   -7.1251   26.8736 C   0  0  0  0  0  0  0  0  0  0  0  0
   -3.3980   -7.2983   28.2535 C   0  0  0  0  0  0  0  0  0  0  0  0
   -5.8140  -11.6499   28.1867 N   0  0  0  0  0  0  0  0  0  0  0  0
   -6.4692  -12.3737   27.0407 N   0  0  0  0  0  0  0  0  0  0  0  0
   -6.9793  -13.1412   27.9585 C   0  0  0  0  0  0  0  0  0  0  0  0
   -8.2407  -14.2066   28.0405 N   0  0  0  0  0  0  0  0  0  0  0  0
   -8.4952  -15.7043   27.2005 C   0  0  0  0  0  0  0  0  0  0  0  0
   -9.9798  -15.9162   26.7841 C   0  0  0  0  0  0  0  0  0  0  0  0
  -10.7676  -14.6769   27.3263 C   0  0  0  0  0  0  0  0  0  0  0  0
   -9.5037  -13.7551   27.4032 C   0  0  0  0  0  0  0  0  0  0  0  0
   -7.2167  -19.6731   35.0353 H   0  0  0  0  0  0  0  0  0  0  0  0
   -8.7573  -19.3114   34.2312 H   0  0  0  0  0  0  0  0  0  0  0  0
   -7.8077  -20.8204   33.9882 H   0  0  0  0  0  0  0  0  0  0  0  0
   -6.0500  -19.4196   33.0604 H   0  0  0  0  0  0  0  0  0  0  0  0
   -5.7932  -16.0885   30.2169 H   0  0  0  0  0  0  0  0  0  0  0  0
   -6.3614  -15.0878   31.9294 H   0  0  0  0  0  0  0  0  0  0  0  0
   -6.6221  -13.2031   31.2301 H   0  0  0  0  0  0  0  0  0  0  0  0
   -6.9604  -14.0336   29.7547 H   0  0  0  0  0  0  0  0  0  0  0  0
   -6.7325   -4.6789   29.2994 H   0  0  0  0  0  0  0  0  0  0  0  0
   -1.4560   -3.6587   29.3596 H   0  0  0  0  0  0  0  0  0  0  0  0
   -0.7203   -3.4204   27.2377 H   0  0  0  0  0  0  0  0  0  0  0  0
   -1.6202   -5.6201   25.2746 H   0  0  0  0  0  0  0  0  0  0  0  0
   -2.9494   -7.7850   26.0256 H   0  0  0  0  0  0  0  0  0  0  0  0
   -8.1010  -15.5992   26.1787 H   0  0  0  0  0  0  0  0  0  0  0  0
   -8.1264  -16.5143   27.8224 H   0  0  0  0  0  0  0  0  0  0  0  0
   -9.9270  -16.0598   25.7211 H   0  0  0  0  0  0  0  0  0  0  0  0
  -10.3692  -16.8814   27.0234 H   0  0  0  0  0  0  0  0  0  0  0  0
  -11.3169  -14.6309   28.2661 H   0  0  0  0  0  0  0  0  0  0  0  0
  -11.6228  -14.3821   26.7019 H   0  0  0  0  0  0  0  0  0  0  0  0
   -9.7581  -12.8402   26.9194 H   0  0  0  0  0  0  0  0  0  0  0  0
   -9.0033  -14.0392   26.5285 H   0  0  0  0  0  0  0  0  0  0  0  0
  1  2  1  0
  2  3  1  0
  3  4  2  0
  3  5  2  0
  3  6  1  0
  6  7  1  0
  7  8  1  0
  8  9  1  0
  9 10  1  0
 10 11  2  0
 11 12  1  0
 12 13  1  0
 13 14  2  0
 13 15  1  0
 15 16  2  0
 16 17  1  0
 17 18  2  0
 18 19  1  0
 19 20  2  0
  9 21  2  0
 21 22  1  0
 22 23  2  0
 23 24  1  0
 24 25  1  0
 25 26  1  0
 26 27  1  0
 27 28  1  0
 23  8  1  0
 28 24  1  0
 20 10  1  0
 20 15  1  0
  1 29  1  0
  1 30  1  0
  1 31  1  0
  2 32  1  0
  6 33  1  0
  6 34  1  0
  7 35  1  0
  7 36  1  0
 12 37  1  0
 16 38  1  0
 17 39  1  0
 18 40  1  0
 19 41  1  0
 25 42  1  0
 25 43  1  0
 26 44  1  0
 26 45  1  0
 27 46  1  0
 27 47  1  0
 28 48  1  0
 28 49  1  0
M  END
>  <Energy>  (902) 
2452.5462882540978

>  <compound_id>  (902) 
39226

>  <target_id>  (902) 
1

>  <reference_id>  (902) 
13

>  <inspiration_ids>  (902) 
[13, 3]

>  <energy_score>  (902) 
2433.8145510922

>  <distance_score>  (902) 
7.921629241648941

>  <path>  (902) 
/opt/xchem-fragalysis-2/maxwin/BulkDock/SCRATCH/511016/C39226-P13/C39226-P13.minimised.mol

>  <scratch_subdir>  (902) 
/opt/xchem-fragalysis-2/maxwin/BulkDock/SCRATCH/511016/C39226-P13

>  <fragmenstein_runtime>  (902) 
28.24849772453308

>  <fragmenstein_outcome>  (902) 
too moved

>  <fragmenstein_mode>  (902) 
expansion

>  <fragmenstein_error>  (902) 


$$$$
C39226-P3
     RDKit          3D

 49 52  0  0  0  0  0  0  0  0999 V2000
   -7.3301  -13.2081   35.8540 C   0  0  0  0  0  0  0  0  0  0  0  0
   -7.0390  -14.0798   34.7147 N   0  0  0  0  0  0  0  0  0  0  0  0
   -7.7547  -13.5715   33.2532 S   0  0  0  0  0  0  0  0  0  0  0  0
   -9.1708  -13.5043   33.5249 O   0  0  0  0  0  0  0  0  0  0  0  0
   -6.9933  -12.4167   32.8716 O   0  0  0  0  0  0  0  0  0  0  0  0
   -7.3704  -14.9554   32.2404 C   0  0  0  0  0  0  0  0  0  0  0  0
   -6.5823  -14.7173   30.7880 C   0  0  0  0  0  0  0  0  0  0  0  0
   -6.7707  -15.2053   29.0303 N   0  0  0  0  0  0  0  0  0  0  0  0
   -6.0698  -13.6345   28.0891 C   0  0  0  0  0  0  0  0  0  0  0  0
   -6.1421  -11.6582   28.1061 C   0  0  0  0  0  0  0  0  0  0  0  0
   -7.1279  -11.0880   28.8172 N   0  0  0  0  0  0  0  0  0  0  0  0
   -7.2070   -9.4902   29.1553 N   0  0  0  0  0  0  0  0  0  0  0  0
   -6.5825   -8.3930   28.6781 C   0  0  0  0  0  0  0  0  0  0  0  0
   -7.0086   -7.2522   28.8459 O   0  0  0  0  0  0  0  0  0  0  0  0
   -5.3008   -8.7506   28.1445 C   0  0  0  0  0  0  0  0  0  0  0  0
   -4.2825   -7.2740   28.4050 C   0  0  0  0  0  0  0  0  0  0  0  0
   -3.0106   -7.1407   27.9684 C   0  0  0  0  0  0  0  0  0  0  0  0
   -2.9011   -8.2586   27.1411 C   0  0  0  0  0  0  0  0  0  0  0  0
   -3.9113   -9.5878   26.8819 C   0  0  0  0  0  0  0  0  0  0  0  0
   -5.1448  -10.0564   27.5222 C   0  0  0  0  0  0  0  0  0  0  0  0
   -6.8369  -13.8978   26.9475 N   0  0  0  0  0  0  0  0  0  0  0  0
   -7.8475  -15.3050   26.7520 N   0  0  0  0  0  0  0  0  0  0  0  0
   -8.0365  -16.1193   27.8845 C   0  0  0  0  0  0  0  0  0  0  0  0
   -9.2348  -17.5698   28.0328 N   0  0  0  0  0  0  0  0  0  0  0  0
   -9.6673  -19.3655   27.8871 C   0  0  0  0  0  0  0  0  0  0  0  0
  -11.1355  -19.8066   27.9514 C   0  0  0  0  0  0  0  0  0  0  0  0
  -11.5136  -19.0325   29.1825 C   0  0  0  0  0  0  0  0  0  0  0  0
  -10.2087  -18.2203   29.5679 C   0  0  0  0  0  0  0  0  0  0  0  0
   -6.8437  -12.2370   35.7208 H   0  0  0  0  0  0  0  0  0  0  0  0
   -8.4028  -13.0594   35.9962 H   0  0  0  0  0  0  0  0  0  0  0  0
   -6.9172  -13.6589   36.7614 H   0  0  0  0  0  0  0  0  0  0  0  0
   -6.0319  -14.1637   34.5955 H   0  0  0  0  0  0  0  0  0  0  0  0
   -8.2760  -15.5706   32.3080 H   0  0  0  0  0  0  0  0  0  0  0  0
   -6.6663  -15.5399   32.8443 H   0  0  0  0  0  0  0  0  0  0  0  0
   -5.7576  -15.4232   30.9710 H   0  0  0  0  0  0  0  0  0  0  0  0
   -6.0720  -13.7438   30.7186 H   0  0  0  0  0  0  0  0  0  0  0  0
   -8.0822   -9.0716   29.4263 H   0  0  0  0  0  0  0  0  0  0  0  0
   -4.7897   -6.4192   28.8857 H   0  0  0  0  0  0  0  0  0  0  0  0
   -2.3638   -6.2827   28.0393 H   0  0  0  0  0  0  0  0  0  0  0  0
   -2.2657   -7.9834   26.2994 H   0  0  0  0  0  0  0  0  0  0  0  0
   -3.6744   -9.7922   25.8365 H   0  0  0  0  0  0  0  0  0  0  0  0
   -9.6991  -19.9269   28.8237 H   0  0  0  0  0  0  0  0  0  0  0  0
   -8.7520  -19.9837   28.2018 H   0  0  0  0  0  0  0  0  0  0  0  0
  -11.7429  -19.6392   27.0656 H   0  0  0  0  0  0  0  0  0  0  0  0
  -11.2258  -20.8929   28.1085 H   0  0  0  0  0  0  0  0  0  0  0  0
  -12.3710  -18.4127   28.9862 H   0  0  0  0  0  0  0  0  0  0  0  0
  -11.7535  -19.7090   30.0105 H   0  0  0  0  0  0  0  0  0  0  0  0
   -9.7375  -18.9224   30.1901 H   0  0  0  0  0  0  0  0  0  0  0  0
  -10.1876  -17.6535   30.5203 H   0  0  0  0  0  0  0  0  0  0  0  0
  1  2  1  0
  2  3  1  0
  3  4  2  0
  3  5  2  0
  3  6  1  0
  6  7  1  0
  7  8  1  0
  8  9  1  0
  9 10  1  0
 10 11  2  0
 11 12  1  0
 12 13  1  0
 13 14  2  0
 13 15  1  0
 15 16  2  0
 16 17  1  0
 17 18  2  0
 18 19  1  0
 19 20  2  0
  9 21  2  0
 21 22  1  0
 22 23  2  0
 23 24  1  0
 24 25  1  0
 25 26  1  0
 26 27  1  0
 27 28  1  0
 23  8  1  0
 28 24  1  0
 20 10  1  0
 20 15  1  0
  1 29  1  0
  1 30  1  0
  1 31  1  0
  2 32  1  0
  6 33  1  0
  6 34  1  0
  7 35  1  0
  7 36  1  0
 12 37  1  0
 16 38  1  0
 17 39  1  0
 18 40  1  0
 19 41  1  0
 25 42  1  0
 25 43  1  0
 26 44  1  0
 26 45  1  0
 27 46  1  0
 27 47  1  0
 28 48  1  0
 28 49  1  0
M  END
>  <Energy>  (903) 
1078.1440172911769

>  <compound_id>  (903) 
39226

>  <target_id>  (903) 
1

>  <reference_id>  (903) 
3

>  <inspiration_ids>  (903) 
[13, 3]

>  <energy_score>  (903) 
1059.412280129247

>  <distance_score>  (903) 
9.115812479148241

>  <path>  (903) 
/opt/xchem-fragalysis-2/maxwin/BulkDock/SCRATCH/511016/C39226-P3/C39226-P3.minimised.mol

>  <scratch_subdir>  (903) 
/opt/xchem-fragalysis-2/maxwin/BulkDock/SCRATCH/511016/C39226-P3

>  <fragmenstein_runtime>  (903) 
19.568524599075317

>  <fragmenstein_outcome>  (903) 
too moved

>  <fragmenstein_mode>  (903) 
expansion

>  <fragmenstein_error>  (903) 


$$$$
C14617-P53
     RDKit          3D

 46 47  0  0  0  0  0  0  0  0999 V2000
   13.1492    1.3131   23.5566 O   0  0  0  0  0  0  0  0  0  0  0  0
   13.0375    0.2871   24.1623 C   0  0  0  0  0  0  0  0  0  0  0  0
   11.9593    0.1082   25.2361 C   0  0  0  0  0  0  0  0  0  0  0  0
   11.0020    1.2944   25.3777 C   0  0  0  0  0  0  0  0  0  0  0  0
   10.1067    1.1280   26.6134 C   0  0  0  0  0  0  0  0  0  0  0  0
   10.4154    0.3570   27.4841 O   0  0  0  0  0  0  0  0  0  0  0  0
    8.9566    1.9690   26.4819 N   0  0  0  0  0  0  0  0  0  0  0  0
    7.7209    2.0776   27.3261 C   0  0  0  0  0  0  0  0  0  0  0  0
    6.9305    3.3410   27.0715 C   0  0  0  0  0  0  0  0  0  0  0  0
    8.0669    4.2802   26.8749 C   0  0  0  0  0  0  0  0  0  0  0  0
    9.2240    3.3230   27.0951 C   0  0  0  0  0  0  0  0  0  0  0  0
   13.8174   -0.9256   24.1125 N   0  0  0  0  0  0  0  0  0  0  0  0
   14.9154   -1.3145   23.2503 C   0  0  0  0  0  0  0  0  0  0  0  0
   14.4260   -1.8890   21.9269 C   0  0  0  0  0  0  0  0  0  0  0  0
   15.4995   -2.6720   21.2005 C   0  0  0  0  0  0  0  0  0  0  0  0
   16.5065   -3.1124   21.7459 O   0  0  0  0  0  0  0  0  0  0  0  0
   15.2011   -2.9368   19.8867 N   0  0  0  0  0  0  0  0  0  0  0  0
   15.6419   -2.1063   18.7889 C   0  0  0  0  0  0  0  0  0  0  0  0
   15.2398   -2.8832   17.5400 C   0  0  0  0  0  0  0  0  0  0  0  0
   14.0474   -3.7125   18.0035 C   0  0  0  0  0  0  0  0  0  0  0  0
   14.4147   -4.0708   19.4380 C   0  0  0  0  0  0  0  0  0  0  0  0
   12.4835   -0.0642   26.1849 H   0  0  0  0  0  0  0  0  0  0  0  0
   11.3770   -0.7931   25.0065 H   0  0  0  0  0  0  0  0  0  0  0  0
   10.3828    1.3810   24.4775 H   0  0  0  0  0  0  0  0  0  0  0  0
   11.5690    2.2248   25.4927 H   0  0  0  0  0  0  0  0  0  0  0  0
    7.1067    1.2118   27.0444 H   0  0  0  0  0  0  0  0  0  0  0  0
    7.9475    1.8978   28.3910 H   0  0  0  0  0  0  0  0  0  0  0  0
    6.3096    3.2660   26.1744 H   0  0  0  0  0  0  0  0  0  0  0  0
    6.2886    3.6008   27.9178 H   0  0  0  0  0  0  0  0  0  0  0  0
    8.0778    5.1119   27.5847 H   0  0  0  0  0  0  0  0  0  0  0  0
    8.0711    4.6880   25.8586 H   0  0  0  0  0  0  0  0  0  0  0  0
    9.5366    3.2386   28.1510 H   0  0  0  0  0  0  0  0  0  0  0  0
   10.1089    3.7334   26.5900 H   0  0  0  0  0  0  0  0  0  0  0  0
   13.3832   -1.6228   24.7066 H   0  0  0  0  0  0  0  0  0  0  0  0
   15.5102   -2.0403   23.8137 H   0  0  0  0  0  0  0  0  0  0  0  0
   15.5348   -0.4303   23.0665 H   0  0  0  0  0  0  0  0  0  0  0  0
   14.0589   -1.0818   21.2839 H   0  0  0  0  0  0  0  0  0  0  0  0
   13.5984   -2.5855   22.1060 H   0  0  0  0  0  0  0  0  0  0  0  0
   16.7200   -1.9304   18.8527 H   0  0  0  0  0  0  0  0  0  0  0  0
   15.1295   -1.1441   18.8609 H   0  0  0  0  0  0  0  0  0  0  0  0
   16.0561   -3.5508   17.2387 H   0  0  0  0  0  0  0  0  0  0  0  0
   15.0051   -2.2294   16.6955 H   0  0  0  0  0  0  0  0  0  0  0  0
   13.8691   -4.5911   17.3796 H   0  0  0  0  0  0  0  0  0  0  0  0
   13.1443   -3.0943   17.9829 H   0  0  0  0  0  0  0  0  0  0  0  0
   15.0551   -4.9586   19.4781 H   0  0  0  0  0  0  0  0  0  0  0  0
   13.5471   -4.2282   20.0846 H   0  0  0  0  0  0  0  0  0  0  0  0
  1  2  2  0
  2  3  1  0
  3  4  1  0
  4  5  1  0
  5  6  2  0
  5  7  1  0
  7  8  1  0
  8  9  1  0
  9 10  1  0
 10 11  1  0
  2 12  1  0
 12 13  1  0
 13 14  1  0
 14 15  1  0
 15 16  2  0
 15 17  1  0
 17 18  1  0
 18 19  1  0
 19 20  1  0
 20 21  1  0
 11  7  1  0
 21 17  1  0
  3 22  1  0
  3 23  1  0
  4 24  1  0
  4 25  1  0
  8 26  1  0
  8 27  1  0
  9 28  1  0
  9 29  1  0
 10 30  1  0
 10 31  1  0
 11 32  1  0
 11 33  1  0
 12 34  1  0
 13 35  1  0
 13 36  1  0
 14 37  1  0
 14 38  1  0
 18 39  1  0
 18 40  1  0
 19 41  1  0
 19 42  1  0
 20 43  1  0
 20 44  1  0
 21 45  1  0
 21 46  1  0
M  END
>  <Energy>  (904) 
31.508705849988608

>  <compound_id>  (904) 
14617

>  <target_id>  (904) 
1

>  <reference_id>  (904) 
53

>  <inspiration_ids>  (904) 
[53, 124]

>  <energy_score>  (904) 
51.71674052141623

>  <distance_score>  (904) 
7.007589531503853

>  <path>  (904) 
/opt/xchem-fragalysis-2/maxwin/BulkDock/SCRATCH/511016/C14617-P53/C14617-P53.minimised.mol

>  <scratch_subdir>  (904) 
/opt/xchem-fragalysis-2/maxwin/BulkDock/SCRATCH/511016/C14617-P53

>  <fragmenstein_runtime>  (904) 
16.123987197875977

>  <fragmenstein_outcome>  (904) 
too moved

>  <fragmenstein_mode>  (904) 
expansion

>  <fragmenstein_error>  (904) 


$$$$
C14617-P124
     RDKit          3D

 46 47  0  0  0  0  0  0  0  0999 V2000
   11.1190    3.1823   19.2639 O   0  0  0  0  0  0  0  0  0  0  0  0
   11.3259    4.3314   19.0055 C   0  0  0  0  0  0  0  0  0  0  0  0
   10.5012    5.4413   19.6650 C   0  0  0  0  0  0  0  0  0  0  0  0
    9.3932    4.8983   20.5687 C   0  0  0  0  0  0  0  0  0  0  0  0
    8.4474    6.0043   21.0439 C   0  0  0  0  0  0  0  0  0  0  0  0
    8.6635    7.1603   20.7918 O   0  0  0  0  0  0  0  0  0  0  0  0
    7.3281    5.3860   21.6907 N   0  0  0  0  0  0  0  0  0  0  0  0
    6.0238    5.9643   22.1590 C   0  0  0  0  0  0  0  0  0  0  0  0
    6.1649    7.0965   23.1529 C   0  0  0  0  0  0  0  0  0  0  0  0
    7.3430    6.6049   23.9120 C   0  0  0  0  0  0  0  0  0  0  0  0
    7.5674    5.2959   23.1839 C   0  0  0  0  0  0  0  0  0  0  0  0
   12.2881    4.9368   18.1254 N   0  0  0  0  0  0  0  0  0  0  0  0
   13.2406    4.3453   17.2079 C   0  0  0  0  0  0  0  0  0  0  0  0
   14.4114    3.6917   17.9229 C   0  0  0  0  0  0  0  0  0  0  0  0
   15.4786    3.2942   16.9268 C   0  0  0  0  0  0  0  0  0  0  0  0
   16.2908    4.1041   16.4874 O   0  0  0  0  0  0  0  0  0  0  0  0
   15.4974    1.9717   16.5737 N   0  0  0  0  0  0  0  0  0  0  0  0
   14.7755    1.4257   15.4433 C   0  0  0  0  0  0  0  0  0  0  0  0
   15.1967   -0.0394   15.3867 C   0  0  0  0  0  0  0  0  0  0  0  0
   15.6435   -0.3524   16.8126 C   0  0  0  0  0  0  0  0  0  0  0  0
   16.2439    0.9624   17.2912 C   0  0  0  0  0  0  0  0  0  0  0  0
   11.1753    6.0789   20.2496 H   0  0  0  0  0  0  0  0  0  0  0  0
   10.0604    6.0524   18.8671 H   0  0  0  0  0  0  0  0  0  0  0  0
    8.8005    4.1526   20.0241 H   0  0  0  0  0  0  0  0  0  0  0  0
    9.8370    4.4050   21.4406 H   0  0  0  0  0  0  0  0  0  0  0  0
    5.3465    5.1667   22.4997 H   0  0  0  0  0  0  0  0  0  0  0  0
    5.5480    6.3668   21.2548 H   0  0  0  0  0  0  0  0  0  0  0  0
    5.2673    7.2228   23.7645 H   0  0  0  0  0  0  0  0  0  0  0  0
    6.3854    8.0470   22.6556 H   0  0  0  0  0  0  0  0  0  0  0  0
    7.1495    6.4580   24.9781 H   0  0  0  0  0  0  0  0  0  0  0  0
    8.1964    7.2822   23.8011 H   0  0  0  0  0  0  0  0  0  0  0  0
    8.6116    4.9928   23.3384 H   0  0  0  0  0  0  0  0  0  0  0  0
    6.9795    4.4719   23.6160 H   0  0  0  0  0  0  0  0  0  0  0  0
   12.2322    5.9462   18.2177 H   0  0  0  0  0  0  0  0  0  0  0  0
   12.7018    3.6034   16.6098 H   0  0  0  0  0  0  0  0  0  0  0  0
   13.5792    5.1402   16.5350 H   0  0  0  0  0  0  0  0  0  0  0  0
   14.0838    2.8215   18.5014 H   0  0  0  0  0  0  0  0  0  0  0  0
   14.8665    4.3842   18.6412 H   0  0  0  0  0  0  0  0  0  0  0  0
   15.0317    1.9752   14.5324 H   0  0  0  0  0  0  0  0  0  0  0  0
   13.7069    1.5410   15.6230 H   0  0  0  0  0  0  0  0  0  0  0  0
   16.0484   -0.1513   14.7049 H   0  0  0  0  0  0  0  0  0  0  0  0
   14.3948   -0.6950   15.0360 H   0  0  0  0  0  0  0  0  0  0  0  0
   14.7802   -0.6138   17.4312 H   0  0  0  0  0  0  0  0  0  0  0  0
   16.3554   -1.1811   16.8620 H   0  0  0  0  0  0  0  0  0  0  0  0
   16.1662    1.1094   18.3722 H   0  0  0  0  0  0  0  0  0  0  0  0
   17.2949    1.0515   16.9955 H   0  0  0  0  0  0  0  0  0  0  0  0
  1  2  2  0
  2  3  1  0
  3  4  1  0
  4  5  1  0
  5  6  2  0
  5  7  1  0
  7  8  1  0
  8  9  1  0
  9 10  1  0
 10 11  1  0
  2 12  1  0
 12 13  1  0
 13 14  1  0
 14 15  1  0
 15 16  2  0
 15 17  1  0
 17 18  1  0
 18 19  1  0
 19 20  1  0
 20 21  1  0
 11  7  1  0
 21 17  1  0
  3 22  1  0
  3 23  1  0
  4 24  1  0
  4 25  1  0
  8 26  1  0
  8 27  1  0
  9 28  1  0
  9 29  1  0
 10 30  1  0
 10 31  1  0
 11 32  1  0
 11 33  1  0
 12 34  1  0
 13 35  1  0
 13 36  1  0
 14 37  1  0
 14 38  1  0
 18 39  1  0
 18 40  1  0
 19 41  1  0
 19 42  1  0
 20 43  1  0
 20 44  1  0
 21 45  1  0
 21 46  1  0
M  END
>  <Energy>  (905) 
33.736320567834532

>  <compound_id>  (905) 
14617

>  <target_id>  (905) 
1

>  <reference_id>  (905) 
124

>  <inspiration_ids>  (905) 
[53, 124]

>  <energy_score>  (905) 
53.94435523926302

>  <distance_score>  (905) 
7.034407153404247

>  <path>  (905) 
/opt/xchem-fragalysis-2/maxwin/BulkDock/SCRATCH/511016/C14617-P124/C14617-P124.minimised.mol

>  <scratch_subdir>  (905) 
/opt/xchem-fragalysis-2/maxwin/BulkDock/SCRATCH/511016/C14617-P124

>  <fragmenstein_runtime>  (905) 
15.140566110610962

>  <fragmenstein_outcome>  (905) 
too moved

>  <fragmenstein_mode>  (905) 
expansion

>  <fragmenstein_error>  (905) 


$$$$
C14621-P53
     RDKit          3D

 47 48  0  0  0  0  0  0  0  0999 V2000
    9.8813    4.7596   21.8900 C   0  0  0  0  0  0  0  0  0  0  0  0
    9.7380    4.0245   20.5787 C   0  0  0  0  0  0  0  0  0  0  0  0
    8.3320    3.7552   19.9680 C   0  0  0  0  0  0  0  0  0  0  0  0
    7.2891    5.0300   20.1781 C   0  0  0  0  0  0  0  0  0  0  0  0
    6.4597    5.1996   21.4893 N   0  0  0  0  0  0  0  0  0  0  0  0
    5.1081    5.7690   21.2766 C   0  0  0  0  0  0  0  0  0  0  0  0
    4.5255    5.9845   22.6767 C   0  0  0  0  0  0  0  0  0  0  0  0
    5.7320    6.2756   23.5403 C   0  0  0  0  0  0  0  0  0  0  0  0
    6.9437    6.0393   22.6102 C   0  0  0  0  0  0  0  0  0  0  0  0
    8.7454    3.1321   18.5938 N   0  0  0  0  0  0  0  0  0  0  0  0
    8.7741    1.6230   18.1188 C   0  0  0  0  0  0  0  0  0  0  0  0
    8.4167    0.6459   18.6676 O   0  0  0  0  0  0  0  0  0  0  0  0
    9.4616    1.2560   16.7746 C   0  0  0  0  0  0  0  0  0  0  0  0
   10.1543    0.5829   16.0061 C   0  0  0  0  0  0  0  0  0  0  0  0
   10.9429   -0.4960   15.2150 C   0  0  0  0  0  0  0  0  0  0  0  0
   11.8645    0.1112   14.1735 C   0  0  0  0  0  0  0  0  0  0  0  0
    9.9214   -1.4545   14.6854 C   0  0  0  0  0  0  0  0  0  0  0  0
   10.6980   -2.7046   14.3248 C   0  0  0  0  0  0  0  0  0  0  0  0
   11.8780   -2.7300   15.2476 C   0  0  0  0  0  0  0  0  0  0  0  0
   11.7661   -1.4802   15.9800 N   0  0  0  0  0  0  0  0  0  0  0  0
   10.9407    4.8106   22.1667 H   0  0  0  0  0  0  0  0  0  0  0  0
    9.5320    5.7908   21.8074 H   0  0  0  0  0  0  0  0  0  0  0  0
    9.3691    4.2462   22.7028 H   0  0  0  0  0  0  0  0  0  0  0  0
   10.2543    3.0596   20.6800 H   0  0  0  0  0  0  0  0  0  0  0  0
   10.3248    4.5908   19.8412 H   0  0  0  0  0  0  0  0  0  0  0  0
    7.8689    2.9083   20.4765 H   0  0  0  0  0  0  0  0  0  0  0  0
    7.8230    5.9662   19.9763 H   0  0  0  0  0  0  0  0  0  0  0  0
    6.5607    4.9220   19.3668 H   0  0  0  0  0  0  0  0  0  0  0  0
    5.1883    6.7340   20.7585 H   0  0  0  0  0  0  0  0  0  0  0  0
    4.4634    5.1272   20.6738 H   0  0  0  0  0  0  0  0  0  0  0  0
    3.8058    6.8091   22.6877 H   0  0  0  0  0  0  0  0  0  0  0  0
    4.0063    5.0861   23.0273 H   0  0  0  0  0  0  0  0  0  0  0  0
    5.7263    7.3071   23.9076 H   0  0  0  0  0  0  0  0  0  0  0  0
    5.7582    5.6094   24.4089 H   0  0  0  0  0  0  0  0  0  0  0  0
    7.7373    5.5608   23.1830 H   0  0  0  0  0  0  0  0  0  0  0  0
    7.3123    7.0011   22.2335 H   0  0  0  0  0  0  0  0  0  0  0  0
    9.0566    3.7312   17.8394 H   0  0  0  0  0  0  0  0  0  0  0  0
   12.6349    0.7380   14.6367 H   0  0  0  0  0  0  0  0  0  0  0  0
   11.2966    0.7591   13.4942 H   0  0  0  0  0  0  0  0  0  0  0  0
   12.3742   -0.6275   13.5453 H   0  0  0  0  0  0  0  0  0  0  0  0
    9.3102   -0.9862   13.9286 H   0  0  0  0  0  0  0  0  0  0  0  0
    9.1770   -1.6870   15.4501 H   0  0  0  0  0  0  0  0  0  0  0  0
   10.1019   -3.5932   14.5020 H   0  0  0  0  0  0  0  0  0  0  0  0
   11.0459   -2.6921   13.2887 H   0  0  0  0  0  0  0  0  0  0  0  0
   12.8157   -2.7828   14.6835 H   0  0  0  0  0  0  0  0  0  0  0  0
   11.8530   -3.5806   15.9354 H   0  0  0  0  0  0  0  0  0  0  0  0
   12.7129   -1.1205   16.1067 H   0  0  0  0  0  0  0  0  0  0  0  0
  1  2  1  0
  2  3  1  0
  3  4  1  0
  4  5  1  0
  5  6  1  0
  6  7  1  0
  7  8  1  0
  8  9  1  0
  3 10  1  0
 10 11  1  0
 11 12  2  0
 11 13  1  0
 13 14  3  0
 14 15  1  0
 15 16  1  0
 15 17  1  0
 17 18  1  0
 18 19  1  0
 19 20  1  0
  9  5  1  0
 20 15  1  0
  1 21  1  0
  1 22  1  0
  1 23  1  0
  2 24  1  0
  2 25  1  0
  3 26  1  0
  4 27  1  0
  4 28  1  0
  6 29  1  0
  6 30  1  0
  7 31  1  0
  7 32  1  0
  8 33  1  0
  8 34  1  0
  9 35  1  0
  9 36  1  0
 10 37  1  0
 16 38  1  0
 16 39  1  0
 16 40  1  0
 17 41  1  0
 17 42  1  0
 18 43  1  0
 18 44  1  0
 19 45  1  0
 19 46  1  0
 20 47  1  0
M  END
>  <Energy>  (906) 
72.945075377499421

>  <compound_id>  (906) 
14621

>  <target_id>  (906) 
1

>  <reference_id>  (906) 
53

>  <inspiration_ids>  (906) 
[53, 124]

>  <energy_score>  (906) 
42.804864227521364

>  <distance_score>  (906) 
6.414396386046348

>  <path>  (906) 
/opt/xchem-fragalysis-2/maxwin/BulkDock/SCRATCH/511016/C14621-P53/C14621-P53.minimised.mol

>  <scratch_subdir>  (906) 
/opt/xchem-fragalysis-2/maxwin/BulkDock/SCRATCH/511016/C14621-P53

>  <fragmenstein_runtime>  (906) 
6.674428224563599

>  <fragmenstein_outcome>  (906) 
too moved

>  <fragmenstein_mode>  (906) 
expansion

>  <fragmenstein_error>  (906) 


$$$$
C14621-P124
     RDKit          3D

 47 48  0  0  0  0  0  0  0  0999 V2000
    9.1801    5.8305   17.4858 C   0  0  0  0  0  0  0  0  0  0  0  0
   10.1140    5.6162   18.6700 C   0  0  0  0  0  0  0  0  0  0  0  0
   10.2008    4.1375   19.0812 C   0  0  0  0  0  0  0  0  0  0  0  0
    9.9679    4.0012   20.7627 C   0  0  0  0  0  0  0  0  0  0  0  0
    8.6076    4.1065   21.5586 N   0  0  0  0  0  0  0  0  0  0  0  0
    8.7822    4.1120   23.0442 C   0  0  0  0  0  0  0  0  0  0  0  0
    7.5799    4.8523   23.6703 C   0  0  0  0  0  0  0  0  0  0  0  0
    6.7285    5.2779   22.4923 C   0  0  0  0  0  0  0  0  0  0  0  0
    7.7278    5.2665   21.3277 C   0  0  0  0  0  0  0  0  0  0  0  0
   11.4658    3.4412   18.3737 N   0  0  0  0  0  0  0  0  0  0  0  0
   12.1249    3.6987   16.9202 C   0  0  0  0  0  0  0  0  0  0  0  0
   11.8671    4.5082   16.0974 O   0  0  0  0  0  0  0  0  0  0  0  0
   13.2433    2.6761   16.3624 C   0  0  0  0  0  0  0  0  0  0  0  0
   13.7846    1.6932   15.8273 C   0  0  0  0  0  0  0  0  0  0  0  0
   14.1267    0.3037   15.1965 C   0  0  0  0  0  0  0  0  0  0  0  0
   12.9347   -0.4767   14.5545 C   0  0  0  0  0  0  0  0  0  0  0  0
   15.2029    0.4007   14.1248 C   0  0  0  0  0  0  0  0  0  0  0  0
   15.7491   -1.0280   14.0264 C   0  0  0  0  0  0  0  0  0  0  0  0
   15.3769   -1.6924   15.3455 C   0  0  0  0  0  0  0  0  0  0  0  0
   14.8152   -0.6034   16.1434 N   0  0  0  0  0  0  0  0  0  0  0  0
    8.1520    5.5636   17.7525 H   0  0  0  0  0  0  0  0  0  0  0  0
    9.1865    6.8830   17.1856 H   0  0  0  0  0  0  0  0  0  0  0  0
    9.4704    5.2278   16.6218 H   0  0  0  0  0  0  0  0  0  0  0  0
   11.1095    6.0060   18.4292 H   0  0  0  0  0  0  0  0  0  0  0  0
    9.7400    6.2274   19.4969 H   0  0  0  0  0  0  0  0  0  0  0  0
    9.3619    3.5748   18.6520 H   0  0  0  0  0  0  0  0  0  0  0  0
   10.3497    3.0027   21.0107 H   0  0  0  0  0  0  0  0  0  0  0  0
   10.6604    4.7252   21.2112 H   0  0  0  0  0  0  0  0  0  0  0  0
    8.8677    3.0877   23.4180 H   0  0  0  0  0  0  0  0  0  0  0  0
    9.7009    4.6432   23.3217 H   0  0  0  0  0  0  0  0  0  0  0  0
    7.0235    4.2419   24.3839 H   0  0  0  0  0  0  0  0  0  0  0  0
    7.9407    5.7378   24.2073 H   0  0  0  0  0  0  0  0  0  0  0  0
    5.9322    4.5612   22.2916 H   0  0  0  0  0  0  0  0  0  0  0  0
    6.2747    6.2622   22.6392 H   0  0  0  0  0  0  0  0  0  0  0  0
    7.2160    5.1902   20.3638 H   0  0  0  0  0  0  0  0  0  0  0  0
    8.3113    6.1949   21.3424 H   0  0  0  0  0  0  0  0  0  0  0  0
   11.8678    2.6167   18.7866 H   0  0  0  0  0  0  0  0  0  0  0  0
   12.3383    0.1935   13.9259 H   0  0  0  0  0  0  0  0  0  0  0  0
   12.2934   -0.9840   15.2736 H   0  0  0  0  0  0  0  0  0  0  0  0
   13.2418   -1.2729   13.8670 H   0  0  0  0  0  0  0  0  0  0  0  0
   14.8254    0.7567   13.1597 H   0  0  0  0  0  0  0  0  0  0  0  0
   16.0095    1.0816   14.4291 H   0  0  0  0  0  0  0  0  0  0  0  0
   16.8348   -1.0052   13.8813 H   0  0  0  0  0  0  0  0  0  0  0  0
   15.3185   -1.5672   13.1755 H   0  0  0  0  0  0  0  0  0  0  0  0
   16.2549   -2.1180   15.8407 H   0  0  0  0  0  0  0  0  0  0  0  0
   14.6532   -2.5007   15.2001 H   0  0  0  0  0  0  0  0  0  0  0  0
   14.2168   -0.9886   16.8572 H   0  0  0  0  0  0  0  0  0  0  0  0
  1  2  1  0
  2  3  1  0
  3  4  1  0
  4  5  1  0
  5  6  1  0
  6  7  1  0
  7  8  1  0
  8  9  1  0
  3 10  1  0
 10 11  1  0
 11 12  2  0
 11 13  1  0
 13 14  3  0
 14 15  1  0
 15 16  1  0
 15 17  1  0
 17 18  1  0
 18 19  1  0
 19 20  1  0
  9  5  1  0
 20 15  1  0
  1 21  1  0
  1 22  1  0
  1 23  1  0
  2 24  1  0
  2 25  1  0
  3 26  1  0
  4 27  1  0
  4 28  1  0
  6 29  1  0
  6 30  1  0
  7 31  1  0
  7 32  1  0
  8 33  1  0
  8 34  1  0
  9 35  1  0
  9 36  1  0
 10 37  1  0
 16 38  1  0
 16 39  1  0
 16 40  1  0
 17 41  1  0
 17 42  1  0
 18 43  1  0
 18 44  1  0
 19 45  1  0
 19 46  1  0
 20 47  1  0
M  END
>  <Energy>  (907) 
76.45375974629448

>  <compound_id>  (907) 
14621

>  <target_id>  (907) 
1

>  <reference_id>  (907) 
124

>  <inspiration_ids>  (907) 
[53, 124]

>  <energy_score>  (907) 
46.313548596313524

>  <distance_score>  (907) 
6.40097007870671

>  <path>  (907) 
/opt/xchem-fragalysis-2/maxwin/BulkDock/SCRATCH/511016/C14621-P124/C14621-P124.minimised.mol

>  <scratch_subdir>  (907) 
/opt/xchem-fragalysis-2/maxwin/BulkDock/SCRATCH/511016/C14621-P124

>  <fragmenstein_runtime>  (907) 
9.808597326278687

>  <fragmenstein_outcome>  (907) 
too moved

>  <fragmenstein_mode>  (907) 
expansion

>  <fragmenstein_error>  (907) 


$$$$
C14626-P53
     RDKit          3D

 44 45  0  0  0  0  0  0  0  0999 V2000
   10.3314    0.0242   25.6205 C   0  0  0  0  0  0  0  0  0  0  0  0
   10.9237    1.2762   26.2429 C   0  0  0  0  0  0  0  0  0  0  0  0
   10.1134    2.5272   25.8975 C   0  0  0  0  0  0  0  0  0  0  0  0
   12.7371    1.4878   25.9151 S   0  0  0  0  0  0  0  0  0  0  0  0
   13.0456    0.7309   24.2193 C   0  0  0  0  0  0  0  0  0  0  0  0
   12.5109    1.7135   23.1832 C   0  0  0  0  0  0  0  0  0  0  0  0
   14.5951    0.4269   24.0376 C   0  0  0  0  0  0  0  0  0  0  0  0
   15.3074    0.3534   25.0071 O   0  0  0  0  0  0  0  0  0  0  0  0
   14.9179    0.3637   22.6344 N   0  0  0  0  0  0  0  0  0  0  0  0
   16.2376    0.2986   21.9399 C   0  0  0  0  0  0  0  0  0  0  0  0
   16.1123   -0.1042   20.4862 C   0  0  0  0  0  0  0  0  0  0  0  0
   15.0077   -1.1142   20.6004 C   0  0  0  0  0  0  0  0  0  0  0  0
   15.3213   -2.3731   19.9228 N   0  0  0  0  0  0  0  0  0  0  0  0
   15.3834   -2.2617   18.4523 C   0  0  0  0  0  0  0  0  0  0  0  0
   14.3392   -3.2151   17.8963 C   0  0  0  0  0  0  0  0  0  0  0  0
   14.2558   -4.2798   18.9665 C   0  0  0  0  0  0  0  0  0  0  0  0
   14.4293   -3.4922   20.2550 C   0  0  0  0  0  0  0  0  0  0  0  0
   14.8418   -1.0802   22.1335 C   0  0  0  0  0  0  0  0  0  0  0  0
    9.3120   -0.1375   25.9877 H   0  0  0  0  0  0  0  0  0  0  0  0
   10.9112   -0.8690   25.8754 H   0  0  0  0  0  0  0  0  0  0  0  0
   10.2759    0.1143   24.5336 H   0  0  0  0  0  0  0  0  0  0  0  0
   10.8645    1.1553   27.3315 H   0  0  0  0  0  0  0  0  0  0  0  0
   10.5154    3.4100   26.4064 H   0  0  0  0  0  0  0  0  0  0  0  0
    9.0744    2.4074   26.2230 H   0  0  0  0  0  0  0  0  0  0  0  0
   10.1039    2.7272   24.8230 H   0  0  0  0  0  0  0  0  0  0  0  0
   12.5436   -0.2374   24.1672 H   0  0  0  0  0  0  0  0  0  0  0  0
   11.4316    1.8573   23.2728 H   0  0  0  0  0  0  0  0  0  0  0  0
   12.6861    1.3536   22.1684 H   0  0  0  0  0  0  0  0  0  0  0  0
   13.0034    2.6898   23.2595 H   0  0  0  0  0  0  0  0  0  0  0  0
   16.6367    1.3206   21.9893 H   0  0  0  0  0  0  0  0  0  0  0  0
   16.9734   -0.2907   22.5131 H   0  0  0  0  0  0  0  0  0  0  0  0
   15.8087    0.7371   19.8530 H   0  0  0  0  0  0  0  0  0  0  0  0
   17.0635   -0.4929   20.1081 H   0  0  0  0  0  0  0  0  0  0  0  0
   14.0982   -0.6877   20.1746 H   0  0  0  0  0  0  0  0  0  0  0  0
   16.3814   -2.5867   18.1348 H   0  0  0  0  0  0  0  0  0  0  0  0
   15.2421   -1.2466   18.0683 H   0  0  0  0  0  0  0  0  0  0  0  0
   14.6217   -3.6262   16.9228 H   0  0  0  0  0  0  0  0  0  0  0  0
   13.3737   -2.7093   17.7898 H   0  0  0  0  0  0  0  0  0  0  0  0
   15.0765   -4.9975   18.8480 H   0  0  0  0  0  0  0  0  0  0  0  0
   13.3115   -4.8292   18.9362 H   0  0  0  0  0  0  0  0  0  0  0  0
   14.8649   -4.1150   21.0431 H   0  0  0  0  0  0  0  0  0  0  0  0
   13.4526   -3.1534   20.6104 H   0  0  0  0  0  0  0  0  0  0  0  0
   15.5295   -1.7460   22.6849 H   0  0  0  0  0  0  0  0  0  0  0  0
   13.8471   -1.4545   22.3989 H   0  0  0  0  0  0  0  0  0  0  0  0
  1  2  1  0
  2  3  1  0
  2  4  1  0
  4  5  1  0
  5  6  1  0
  5  7  1  0
  7  8  2  0
  7  9  1  0
  9 10  1  0
 10 11  1  0
 11 12  1  0
 12 13  1  0
 13 14  1  0
 14 15  1  0
 15 16  1  0
 16 17  1  0
 12 18  1  0
 18  9  1  0
 17 13  1  0
  1 19  1  0
  1 20  1  0
  1 21  1  0
  2 22  1  0
  3 23  1  0
  3 24  1  0
  3 25  1  0
  5 26  1  0
  6 27  1  0
  6 28  1  0
  6 29  1  0
 10 30  1  0
 10 31  1  0
 11 32  1  0
 11 33  1  0
 12 34  1  0
 14 35  1  0
 14 36  1  0
 15 37  1  0
 15 38  1  0
 16 39  1  0
 16 40  1  0
 17 41  1  0
 17 42  1  0
 18 43  1  0
 18 44  1  0
M  END
>  <Energy>  (908) 
119.54491725226924

>  <compound_id>  (908) 
14626

>  <target_id>  (908) 
1

>  <reference_id>  (908) 
53

>  <inspiration_ids>  (908) 
[53, 124]

>  <energy_score>  (908) 
22.10452400147014

>  <distance_score>  (908) 
5.520536471002662

>  <path>  (908) 
/opt/xchem-fragalysis-2/maxwin/BulkDock/SCRATCH/511016/C14626-P53/C14626-P53.minimised.mol

>  <scratch_subdir>  (908) 
/opt/xchem-fragalysis-2/maxwin/BulkDock/SCRATCH/511016/C14626-P53

>  <fragmenstein_runtime>  (908) 
8.040382385253906

>  <fragmenstein_outcome>  (908) 
too moved

>  <fragmenstein_mode>  (908) 
expansion

>  <fragmenstein_error>  (908) 


$$$$
C14626-P124
     RDKit          3D

 44 45  0  0  0  0  0  0  0  0999 V2000
   11.6492    2.3172   26.3870 C   0  0  0  0  0  0  0  0  0  0  0  0
   11.0883    2.6274   25.0023 C   0  0  0  0  0  0  0  0  0  0  0  0
    9.5587    2.5757   25.0197 C   0  0  0  0  0  0  0  0  0  0  0  0
   11.7597    1.4222   23.7676 S   0  0  0  0  0  0  0  0  0  0  0  0
   13.4557    2.1236   23.4841 C   0  0  0  0  0  0  0  0  0  0  0  0
   13.4244    3.0134   22.2453 C   0  0  0  0  0  0  0  0  0  0  0  0
   14.5493    0.9982   23.5181 C   0  0  0  0  0  0  0  0  0  0  0  0
   14.7240    0.4142   24.5602 O   0  0  0  0  0  0  0  0  0  0  0  0
   15.2547    0.9090   22.2707 N   0  0  0  0  0  0  0  0  0  0  0  0
   16.4925    0.1504   21.8975 C   0  0  0  0  0  0  0  0  0  0  0  0
   16.6786    0.0008   20.3941 C   0  0  0  0  0  0  0  0  0  0  0  0
   15.2415   -0.0847   19.9732 C   0  0  0  0  0  0  0  0  0  0  0  0
   14.8415   -1.0981   18.9969 N   0  0  0  0  0  0  0  0  0  0  0  0
   15.4645   -0.9514   17.6798 C   0  0  0  0  0  0  0  0  0  0  0  0
   15.0400   -2.2223   16.9555 C   0  0  0  0  0  0  0  0  0  0  0  0
   14.7771   -3.2390   18.0616 C   0  0  0  0  0  0  0  0  0  0  0  0
   15.0460   -2.4965   19.3670 C   0  0  0  0  0  0  0  0  0  0  0  0
   14.6191   -0.1357   21.3798 C   0  0  0  0  0  0  0  0  0  0  0  0
   11.2634    3.0324   27.1222 H   0  0  0  0  0  0  0  0  0  0  0  0
   11.3647    1.3138   26.7236 H   0  0  0  0  0  0  0  0  0  0  0  0
   12.7413    2.3881   26.4112 H   0  0  0  0  0  0  0  0  0  0  0  0
   11.3941    3.6333   24.6948 H   0  0  0  0  0  0  0  0  0  0  0  0
    9.1922    1.5907   25.3284 H   0  0  0  0  0  0  0  0  0  0  0  0
    9.1588    3.3141   25.7233 H   0  0  0  0  0  0  0  0  0  0  0  0
    9.1493    2.8083   24.0310 H   0  0  0  0  0  0  0  0  0  0  0  0
   13.7071    2.7700   24.3336 H   0  0  0  0  0  0  0  0  0  0  0  0
   12.7220    3.8446   22.3742 H   0  0  0  0  0  0  0  0  0  0  0  0
   14.4108    3.4523   22.0585 H   0  0  0  0  0  0  0  0  0  0  0  0
   13.1329    2.4641   21.3441 H   0  0  0  0  0  0  0  0  0  0  0  0
   17.3245    0.7438   22.2997 H   0  0  0  0  0  0  0  0  0  0  0  0
   16.5620   -0.8012   22.4515 H   0  0  0  0  0  0  0  0  0  0  0  0
   17.2946   -0.8730   20.1659 H   0  0  0  0  0  0  0  0  0  0  0  0
   17.1622    0.8798   19.9538 H   0  0  0  0  0  0  0  0  0  0  0  0
   14.9592    0.8885   19.5452 H   0  0  0  0  0  0  0  0  0  0  0  0
   16.5583   -0.9129   17.7498 H   0  0  0  0  0  0  0  0  0  0  0  0
   15.1183   -0.0566   17.1533 H   0  0  0  0  0  0  0  0  0  0  0  0
   15.8169   -2.5679   16.2658 H   0  0  0  0  0  0  0  0  0  0  0  0
   14.1263   -2.0605   16.3730 H   0  0  0  0  0  0  0  0  0  0  0  0
   15.4281   -4.1133   17.9646 H   0  0  0  0  0  0  0  0  0  0  0  0
   13.7385   -3.5857   18.0113 H   0  0  0  0  0  0  0  0  0  0  0  0
   16.0733   -2.6929   19.6936 H   0  0  0  0  0  0  0  0  0  0  0  0
   14.3641   -2.8292   20.1550 H   0  0  0  0  0  0  0  0  0  0  0  0
   14.6130   -1.1327   21.8537 H   0  0  0  0  0  0  0  0  0  0  0  0
   13.5663    0.1406   21.3242 H   0  0  0  0  0  0  0  0  0  0  0  0
  1  2  1  0
  2  3  1  0
  2  4  1  0
  4  5  1  0
  5  6  1  0
  5  7  1  0
  7  8  2  0
  7  9  1  0
  9 10  1  0
 10 11  1  0
 11 12  1  0
 12 13  1  0
 13 14  1  0
 14 15  1  0
 15 16  1  0
 16 17  1  0
 12 18  1  0
 18  9  1  0
 17 13  1  0
  1 19  1  0
  1 20  1  0
  1 21  1  0
  2 22  1  0
  3 23  1  0
  3 24  1  0
  3 25  1  0
  5 26  1  0
  6 27  1  0
  6 28  1  0
  6 29  1  0
 10 30  1  0
 10 31  1  0
 11 32  1  0
 11 33  1  0
 12 34  1  0
 14 35  1  0
 14 36  1  0
 15 37  1  0
 15 38  1  0
 16 39  1  0
 16 40  1  0
 17 41  1  0
 17 42  1  0
 18 43  1  0
 18 44  1  0
M  END
>  <Energy>  (909) 
113.83830122906862

>  <compound_id>  (909) 
14626

>  <target_id>  (909) 
1

>  <reference_id>  (909) 
124

>  <inspiration_ids>  (909) 
[53, 124]

>  <energy_score>  (909) 
16.39790797827078

>  <distance_score>  (909) 
5.268211895578561

>  <path>  (909) 
/opt/xchem-fragalysis-2/maxwin/BulkDock/SCRATCH/511016/C14626-P124/C14626-P124.minimised.mol

>  <scratch_subdir>  (909) 
/opt/xchem-fragalysis-2/maxwin/BulkDock/SCRATCH/511016/C14626-P124

>  <fragmenstein_runtime>  (909) 
8.661118984222412

>  <fragmenstein_outcome>  (909) 
too moved

>  <fragmenstein_mode>  (909) 
expansion

>  <fragmenstein_error>  (909) 


$$$$
C14627-P53
     RDKit          3D

 57 58  0  0  0  0  0  0  0  0999 V2000
   13.0890    3.1564   21.5854 C   0  0  0  0  0  0  0  0  0  0  0  0
   12.5943    2.1586   22.6366 C   0  0  0  0  0  0  0  0  0  0  0  0
   13.6468    1.0731   22.8542 C   0  0  0  0  0  0  0  0  0  0  0  0
   12.2510    3.0710   24.2174 S   0  0  0  0  0  0  0  0  0  0  0  0
   10.5287    2.4831   24.6410 C   0  0  0  0  0  0  0  0  0  0  0  0
   10.6108    1.1793   25.4196 C   0  0  0  0  0  0  0  0  0  0  0  0
    9.7373    3.6839   25.3035 C   0  0  0  0  0  0  0  0  0  0  0  0
    9.5135    4.6434   24.7167 O   0  0  0  0  0  0  0  0  0  0  0  0
    9.4872    3.2470   26.8665 N   0  0  0  0  0  0  0  0  0  0  0  0
    8.8674    4.4957   28.1256 C   0  0  0  0  0  0  0  0  0  0  0  0
    7.4759    5.2173   27.7768 C   0  0  0  0  0  0  0  0  0  0  0  0
    7.1340    3.9301   28.2906 C   0  0  0  0  0  0  0  0  0  0  0  0
    6.0500    3.2865   27.6173 N   0  0  0  0  0  0  0  0  0  0  0  0
    4.7478    2.8384   28.1111 C   0  0  0  0  0  0  0  0  0  0  0  0
    4.2963    2.8279   29.2227 O   0  0  0  0  0  0  0  0  0  0  0  0
    3.8040    2.3410   26.9109 C   0  0  0  0  0  0  0  0  0  0  0  0
    3.4690    3.5479   26.0120 C   0  0  0  0  0  0  0  0  0  0  0  0
    4.5391    1.2694   26.0919 C   0  0  0  0  0  0  0  0  0  0  0  0
    2.5123    1.7216   27.3347 N   0  0  0  0  0  0  0  0  0  0  0  0
    1.4880    2.5817   27.9270 C   0  0  0  0  0  0  0  0  0  0  0  0
    0.4054    1.5785   28.2839 C   0  0  0  0  0  0  0  0  0  0  0  0
    1.1846    0.3637   28.7611 C   0  0  0  0  0  0  0  0  0  0  0  0
    2.5809    0.5146   28.1598 C   0  0  0  0  0  0  0  0  0  0  0  0
    8.8449    3.7795   27.9822 C   0  0  0  0  0  0  0  0  0  0  0  0
   14.0005    3.6705   21.9110 H   0  0  0  0  0  0  0  0  0  0  0  0
   12.3255    3.9126   21.3718 H   0  0  0  0  0  0  0  0  0  0  0  0
   13.3199    2.6489   20.6436 H   0  0  0  0  0  0  0  0  0  0  0  0
   11.6644    1.7029   22.2845 H   0  0  0  0  0  0  0  0  0  0  0  0
   13.8489    0.5343   21.9226 H   0  0  0  0  0  0  0  0  0  0  0  0
   13.3095    0.3386   23.5930 H   0  0  0  0  0  0  0  0  0  0  0  0
   14.5961    1.4951   23.2030 H   0  0  0  0  0  0  0  0  0  0  0  0
   10.0101    2.2884   23.6975 H   0  0  0  0  0  0  0  0  0  0  0  0
    9.6135    0.8372   25.7148 H   0  0  0  0  0  0  0  0  0  0  0  0
   11.2077    1.2807   26.3328 H   0  0  0  0  0  0  0  0  0  0  0  0
   11.0566    0.3846   24.8116 H   0  0  0  0  0  0  0  0  0  0  0  0
    9.5020    5.4242   27.6010 H   0  0  0  0  0  0  0  0  0  0  0  0
    9.4596    4.8926   29.1880 H   0  0  0  0  0  0  0  0  0  0  0  0
    7.3386    5.4028   26.7077 H   0  0  0  0  0  0  0  0  0  0  0  0
    7.2625    6.0697   28.4239 H   0  0  0  0  0  0  0  0  0  0  0  0
    6.9465    3.9333   29.3763 H   0  0  0  0  0  0  0  0  0  0  0  0
    6.1215    3.0727   26.6332 H   0  0  0  0  0  0  0  0  0  0  0  0
    3.0239    4.3697   26.5842 H   0  0  0  0  0  0  0  0  0  0  0  0
    2.7832    3.2719   25.2025 H   0  0  0  0  0  0  0  0  0  0  0  0
    4.3691    3.9615   25.5464 H   0  0  0  0  0  0  0  0  0  0  0  0
    3.8739    0.7981   25.3633 H   0  0  0  0  0  0  0  0  0  0  0  0
    4.9609    0.4848   26.7302 H   0  0  0  0  0  0  0  0  0  0  0  0
    5.3661    1.6977   25.5287 H   0  0  0  0  0  0  0  0  0  0  0  0
    1.0906    3.3221   27.2268 H   0  0  0  0  0  0  0  0  0  0  0  0
    1.8421    3.0960   28.8264 H   0  0  0  0  0  0  0  0  0  0  0  0
   -0.2818    1.9566   29.0464 H   0  0  0  0  0  0  0  0  0  0  0  0
   -0.1822    1.3178   27.3947 H   0  0  0  0  0  0  0  0  0  0  0  0
    1.2452    0.3582   29.8555 H   0  0  0  0  0  0  0  0  0  0  0  0
    0.6977   -0.5644   28.4440 H   0  0  0  0  0  0  0  0  0  0  0  0
    3.3175    0.5810   28.9664 H   0  0  0  0  0  0  0  0  0  0  0  0
    2.8240   -0.3639   27.5530 H   0  0  0  0  0  0  0  0  0  0  0  0
    8.4353    2.6371   27.9759 H   0  0  0  0  0  0  0  0  0  0  0  0
    9.4611    3.1204   28.9657 H   0  0  0  0  0  0  0  0  0  0  0  0
  1  2  1  0
  2  3  1  0
  2  4  1  0
  4  5  1  0
  5  6  1  0
  5  7  1  0
  7  8  2  0
  7  9  1  0
  9 10  1  0
 10 11  1  0
 11 12  1  0
 12 13  1  0
 13 14  1  0
 14 15  2  0
 14 16  1  0
 16 17  1  0
 16 18  1  0
 16 19  1  0
 19 20  1  0
 20 21  1  0
 21 22  1  0
 22 23  1  0
 12 24  1  0
 24  9  1  0
 23 19  1  0
  1 25  1  0
  1 26  1  0
  1 27  1  0
  2 28  1  0
  3 29  1  0
  3 30  1  0
  3 31  1  0
  5 32  1  0
  6 33  1  0
  6 34  1  0
  6 35  1  0
 10 36  1  0
 10 37  1  0
 11 38  1  0
 11 39  1  0
 12 40  1  0
 13 41  1  0
 17 42  1  0
 17 43  1  0
 17 44  1  0
 18 45  1  0
 18 46  1  0
 18 47  1  0
 20 48  1  0
 20 49  1  0
 21 50  1  0
 21 51  1  0
 22 52  1  0
 22 53  1  0
 23 54  1  0
 23 55  1  0
 24 56  1  0
 24 57  1  0
M  END
>  <Energy>  (910) 
808.42840961398076

>  <compound_id>  (910) 
14627

>  <target_id>  (910) 
1

>  <reference_id>  (910) 
53

>  <inspiration_ids>  (910) 
[53, 124]

>  <energy_score>  (910) 
677.3009641235999

>  <distance_score>  (910) 
5.673046704219916

>  <path>  (910) 
/opt/xchem-fragalysis-2/maxwin/BulkDock/SCRATCH/511016/C14627-P53/C14627-P53.minimised.mol

>  <scratch_subdir>  (910) 
/opt/xchem-fragalysis-2/maxwin/BulkDock/SCRATCH/511016/C14627-P53

>  <fragmenstein_runtime>  (910) 
17.993006706237793

>  <fragmenstein_outcome>  (910) 
too moved

>  <fragmenstein_mode>  (910) 
expansion

>  <fragmenstein_error>  (910) 


$$$$
C14627-P124
     RDKit          3D

 57 58  0  0  0  0  0  0  0  0999 V2000
   12.2658    3.3749   20.3668 C   0  0  0  0  0  0  0  0  0  0  0  0
   11.5936    3.2115   21.7350 C   0  0  0  0  0  0  0  0  0  0  0  0
   11.5243    1.7426   22.1311 C   0  0  0  0  0  0  0  0  0  0  0  0
    9.9014    3.9646   21.6522 S   0  0  0  0  0  0  0  0  0  0  0  0
    9.3366    4.0633   23.4332 C   0  0  0  0  0  0  0  0  0  0  0  0
   10.4614    4.3784   24.4162 C   0  0  0  0  0  0  0  0  0  0  0  0
    8.2488    5.1887   23.5849 C   0  0  0  0  0  0  0  0  0  0  0  0
    8.1890    6.1158   22.8941 O   0  0  0  0  0  0  0  0  0  0  0  0
    7.4314    4.7682   24.8896 N   0  0  0  0  0  0  0  0  0  0  0  0
    6.1524    5.9525   25.7809 C   0  0  0  0  0  0  0  0  0  0  0  0
    5.3375    5.5192   27.1181 C   0  0  0  0  0  0  0  0  0  0  0  0
    5.1494    4.3351   26.3082 C   0  0  0  0  0  0  0  0  0  0  0  0
    3.7880    4.3141   25.8061 N   0  0  0  0  0  0  0  0  0  0  0  0
    2.6822    3.4093   26.0865 C   0  0  0  0  0  0  0  0  0  0  0  0
    2.6425    2.4076   26.7418 O   0  0  0  0  0  0  0  0  0  0  0  0
    1.2964    3.9903   25.4449 C   0  0  0  0  0  0  0  0  0  0  0  0
    1.0269    5.3751   26.0777 C   0  0  0  0  0  0  0  0  0  0  0  0
    1.4977    4.1208   23.9153 C   0  0  0  0  0  0  0  0  0  0  0  0
    0.1379    3.0531   25.6813 N   0  0  0  0  0  0  0  0  0  0  0  0
   -0.2006    2.7690   27.0845 C   0  0  0  0  0  0  0  0  0  0  0  0
   -1.5819    2.1429   26.9933 C   0  0  0  0  0  0  0  0  0  0  0  0
   -2.2585    2.9934   25.9445 C   0  0  0  0  0  0  0  0  0  0  0  0
   -1.1270    3.4169   25.0144 C   0  0  0  0  0  0  0  0  0  0  0  0
    6.3922    5.2418   25.5219 C   0  0  0  0  0  0  0  0  0  0  0  0
   12.3950    4.4346   20.1190 H   0  0  0  0  0  0  0  0  0  0  0  0
   11.6822    2.9101   19.5661 H   0  0  0  0  0  0  0  0  0  0  0  0
   13.2610    2.9172   20.3691 H   0  0  0  0  0  0  0  0  0  0  0  0
   12.1958    3.7677   22.4592 H   0  0  0  0  0  0  0  0  0  0  0  0
   12.5118    1.2736   22.0707 H   0  0  0  0  0  0  0  0  0  0  0  0
   10.8348    1.1848   21.4935 H   0  0  0  0  0  0  0  0  0  0  0  0
   11.1748    1.6253   23.1620 H   0  0  0  0  0  0  0  0  0  0  0  0
    8.8855    3.0972   23.6759 H   0  0  0  0  0  0  0  0  0  0  0  0
   10.9960    5.2925   24.1344 H   0  0  0  0  0  0  0  0  0  0  0  0
   11.1806    3.5587   24.4914 H   0  0  0  0  0  0  0  0  0  0  0  0
   10.0690    4.5396   25.4266 H   0  0  0  0  0  0  0  0  0  0  0  0
    6.8475    6.8771   26.1570 H   0  0  0  0  0  0  0  0  0  0  0  0
    5.4821    6.6713   25.0166 H   0  0  0  0  0  0  0  0  0  0  0  0
    4.4863    6.1791   27.3054 H   0  0  0  0  0  0  0  0  0  0  0  0
    5.9923    5.4104   27.9899 H   0  0  0  0  0  0  0  0  0  0  0  0
    5.4600    3.3823   26.7484 H   0  0  0  0  0  0  0  0  0  0  0  0
    3.4815    5.0152   25.1465 H   0  0  0  0  0  0  0  0  0  0  0  0
    1.1089    5.3407   27.1695 H   0  0  0  0  0  0  0  0  0  0  0  0
    0.0441    5.7811   25.8241 H   0  0  0  0  0  0  0  0  0  0  0  0
    1.7568    6.1182   25.7369 H   0  0  0  0  0  0  0  0  0  0  0  0
    0.5956    4.4638   23.3988 H   0  0  0  0  0  0  0  0  0  0  0  0
    1.7950    3.1605   23.4812 H   0  0  0  0  0  0  0  0  0  0  0  0
    2.2755    4.8424   23.6478 H   0  0  0  0  0  0  0  0  0  0  0  0
   -0.2600    3.6777   27.6928 H   0  0  0  0  0  0  0  0  0  0  0  0
    0.4856    2.0680   27.5641 H   0  0  0  0  0  0  0  0  0  0  0  0
   -1.5145    1.1018   26.6562 H   0  0  0  0  0  0  0  0  0  0  0  0
   -2.1147    2.1589   27.9483 H   0  0  0  0  0  0  0  0  0  0  0  0
   -2.7008    3.8787   26.4179 H   0  0  0  0  0  0  0  0  0  0  0  0
   -3.0559    2.4545   25.4272 H   0  0  0  0  0  0  0  0  0  0  0  0
   -1.2373    4.4812   24.7882 H   0  0  0  0  0  0  0  0  0  0  0  0
   -1.1958    2.8730   24.0659 H   0  0  0  0  0  0  0  0  0  0  0  0
    7.0876    4.5632   26.3382 H   0  0  0  0  0  0  0  0  0  0  0  0
    5.8622    4.7461   24.5156 H   0  0  0  0  0  0  0  0  0  0  0  0
  1  2  1  0
  2  3  1  0
  2  4  1  0
  4  5  1  0
  5  6  1  0
  5  7  1  0
  7  8  2  0
  7  9  1  0
  9 10  1  0
 10 11  1  0
 11 12  1  0
 12 13  1  0
 13 14  1  0
 14 15  2  0
 14 16  1  0
 16 17  1  0
 16 18  1  0
 16 19  1  0
 19 20  1  0
 20 21  1  0
 21 22  1  0
 22 23  1  0
 12 24  1  0
 24  9  1  0
 23 19  1  0
  1 25  1  0
  1 26  1  0
  1 27  1  0
  2 28  1  0
  3 29  1  0
  3 30  1  0
  3 31  1  0
  5 32  1  0
  6 33  1  0
  6 34  1  0
  6 35  1  0
 10 36  1  0
 10 37  1  0
 11 38  1  0
 11 39  1  0
 12 40  1  0
 13 41  1  0
 17 42  1  0
 17 43  1  0
 17 44  1  0
 18 45  1  0
 18 46  1  0
 18 47  1  0
 20 48  1  0
 20 49  1  0
 21 50  1  0
 21 51  1  0
 22 52  1  0
 22 53  1  0
 23 54  1  0
 23 55  1  0
 24 56  1  0
 24 57  1  0
M  END
>  <Energy>  (911) 
860.34705857085089

>  <compound_id>  (911) 
14627

>  <target_id>  (911) 
1

>  <reference_id>  (911) 
124

>  <inspiration_ids>  (911) 
[53, 124]

>  <energy_score>  (911) 
729.2196130804633

>  <distance_score>  (911) 
4.924044570408299

>  <path>  (911) 
/opt/xchem-fragalysis-2/maxwin/BulkDock/SCRATCH/511016/C14627-P124/C14627-P124.minimised.mol

>  <scratch_subdir>  (911) 
/opt/xchem-fragalysis-2/maxwin/BulkDock/SCRATCH/511016/C14627-P124

>  <fragmenstein_runtime>  (911) 
15.82844591140747

>  <fragmenstein_outcome>  (911) 
too moved

>  <fragmenstein_mode>  (911) 
expansion

>  <fragmenstein_error>  (911) 


$$$$
C14629-P53
     RDKit          3D

 53 54  0  0  0  0  0  0  0  0999 V2000
    8.1678    3.4951   28.4495 C   0  0  0  0  0  0  0  0  0  0  0  0
    7.7850    3.0891   27.0285 C   0  0  0  0  0  0  0  0  0  0  0  0
    6.2917    2.6247   26.9463 C   0  0  0  0  0  0  0  0  0  0  0  0
    5.2598    3.6300   27.3011 N   0  0  0  0  0  0  0  0  0  0  0  0
    5.3571    4.8755   26.5422 C   0  0  0  0  0  0  0  0  0  0  0  0
    4.0368    5.5675   26.8252 C   0  0  0  0  0  0  0  0  0  0  0  0
    3.0378    4.4390   27.0284 C   0  0  0  0  0  0  0  0  0  0  0  0
    3.8804    3.1658   27.0863 C   0  0  0  0  0  0  0  0  0  0  0  0
    8.7038    2.0128   26.6369 O   0  0  0  0  0  0  0  0  0  0  0  0
    9.7315    2.3374   25.7934 C   0  0  0  0  0  0  0  0  0  0  0  0
    9.7858    3.3817   25.1520 O   0  0  0  0  0  0  0  0  0  0  0  0
   10.8510    1.3120   25.7271 C   0  0  0  0  0  0  0  0  0  0  0  0
   10.9719    0.4715   24.4818 C   0  0  0  0  0  0  0  0  0  0  0  0
   11.0032   -0.8869   25.1731 C   0  0  0  0  0  0  0  0  0  0  0  0
   11.7562   -0.8934   26.4811 N   0  0  0  0  0  0  0  0  0  0  0  0
   13.2341   -0.8458   26.2566 C   0  0  0  0  0  0  0  0  0  0  0  0
   13.9580    0.0708   26.1646 O   0  0  0  0  0  0  0  0  0  0  0  0
   13.6307   -2.1444   26.1483 O   0  0  0  0  0  0  0  0  0  0  0  0
   15.0088   -2.4882   25.8581 C   0  0  0  0  0  0  0  0  0  0  0  0
   15.4390   -1.9487   24.4892 C   0  0  0  0  0  0  0  0  0  0  0  0
   15.9482   -2.0286   26.9783 C   0  0  0  0  0  0  0  0  0  0  0  0
   15.0232   -4.0237   25.8052 C   0  0  0  0  0  0  0  0  0  0  0  0
   10.7739    0.2047   26.7562 C   0  0  0  0  0  0  0  0  0  0  0  0
    8.0573    2.6502   29.1381 H   0  0  0  0  0  0  0  0  0  0  0  0
    7.5581    4.3267   28.8139 H   0  0  0  0  0  0  0  0  0  0  0  0
    9.2202    3.7967   28.4894 H   0  0  0  0  0  0  0  0  0  0  0  0
    7.9191    3.9518   26.3678 H   0  0  0  0  0  0  0  0  0  0  0  0
    6.1078    2.2435   25.9367 H   0  0  0  0  0  0  0  0  0  0  0  0
    6.1716    1.7562   27.6072 H   0  0  0  0  0  0  0  0  0  0  0  0
    5.4555    4.6888   25.4678 H   0  0  0  0  0  0  0  0  0  0  0  0
    6.1965    5.4986   26.8655 H   0  0  0  0  0  0  0  0  0  0  0  0
    3.7404    6.2372   26.0120 H   0  0  0  0  0  0  0  0  0  0  0  0
    4.1082    6.1650   27.7423 H   0  0  0  0  0  0  0  0  0  0  0  0
    2.3174    4.3916   26.2049 H   0  0  0  0  0  0  0  0  0  0  0  0
    2.4792    4.5894   27.9588 H   0  0  0  0  0  0  0  0  0  0  0  0
    3.5513    2.5008   27.8909 H   0  0  0  0  0  0  0  0  0  0  0  0
    3.7858    2.6277   26.1344 H   0  0  0  0  0  0  0  0  0  0  0  0
   11.7820    1.8736   25.8850 H   0  0  0  0  0  0  0  0  0  0  0  0
   11.9143    0.6819   23.9654 H   0  0  0  0  0  0  0  0  0  0  0  0
   10.1465    0.5924   23.7802 H   0  0  0  0  0  0  0  0  0  0  0  0
   10.0073   -1.3411   25.3098 H   0  0  0  0  0  0  0  0  0  0  0  0
   11.5277   -1.5947   24.5183 H   0  0  0  0  0  0  0  0  0  0  0  0
   15.5163   -0.8573   24.4854 H   0  0  0  0  0  0  0  0  0  0  0  0
   14.7057   -2.2138   23.7191 H   0  0  0  0  0  0  0  0  0  0  0  0
   16.4154   -2.3469   24.1929 H   0  0  0  0  0  0  0  0  0  0  0  0
   15.5725   -2.3491   27.9565 H   0  0  0  0  0  0  0  0  0  0  0  0
   16.0363   -0.9387   27.0177 H   0  0  0  0  0  0  0  0  0  0  0  0
   16.9572   -2.4330   26.8429 H   0  0  0  0  0  0  0  0  0  0  0  0
   14.6839   -4.4496   26.7567 H   0  0  0  0  0  0  0  0  0  0  0  0
   16.0229   -4.4145   25.5883 H   0  0  0  0  0  0  0  0  0  0  0  0
   14.3330   -4.3936   25.0379 H   0  0  0  0  0  0  0  0  0  0  0  0
    9.7688   -0.1975   26.9686 H   0  0  0  0  0  0  0  0  0  0  0  0
   11.0981    0.6270   27.7183 H   0  0  0  0  0  0  0  0  0  0  0  0
  1  2  1  0
  2  3  1  0
  3  4  1  0
  4  5  1  0
  5  6  1  0
  6  7  1  0
  7  8  1  0
  2  9  1  0
  9 10  1  0
 10 11  2  0
 10 12  1  0
 12 13  1  0
 13 14  1  0
 14 15  1  0
 15 16  1  0
 16 17  2  0
 16 18  1  0
 18 19  1  0
 19 20  1  0
 19 21  1  0
 19 22  1  0
 15 23  1  0
  8  4  1  0
 23 12  1  0
  1 24  1  0
  1 25  1  0
  1 26  1  0
  2 27  1  0
  3 28  1  0
  3 29  1  0
  5 30  1  0
  5 31  1  0
  6 32  1  0
  6 33  1  0
  7 34  1  0
  7 35  1  0
  8 36  1  0
  8 37  1  0
 12 38  1  0
 13 39  1  0
 13 40  1  0
 14 41  1  0
 14 42  1  0
 20 43  1  0
 20 44  1  0
 20 45  1  0
 21 46  1  0
 21 47  1  0
 21 48  1  0
 22 49  1  0
 22 50  1  0
 22 51  1  0
 23 52  1  0
 23 53  1  0
M  END
>  <Energy>  (912) 
49.052850328952118

>  <compound_id>  (912) 
14629

>  <target_id>  (912) 
1

>  <reference_id>  (912) 
53

>  <inspiration_ids>  (912) 
[53, 124]

>  <energy_score>  (912) 
21.59482265506466

>  <distance_score>  (912) 
9.549645900646517

>  <path>  (912) 
/opt/xchem-fragalysis-2/maxwin/BulkDock/SCRATCH/511016/C14629-P53/C14629-P53.minimised.mol

>  <scratch_subdir>  (912) 
/opt/xchem-fragalysis-2/maxwin/BulkDock/SCRATCH/511016/C14629-P53

>  <fragmenstein_runtime>  (912) 
9.282915592193604

>  <fragmenstein_outcome>  (912) 
too moved

>  <fragmenstein_mode>  (912) 
expansion

>  <fragmenstein_error>  (912) 


$$$$
C14629-P124
     RDKit          3D

 53 54  0  0  0  0  0  0  0  0999 V2000
    8.1379    6.0483   25.1895 C   0  0  0  0  0  0  0  0  0  0  0  0
    7.2196    5.0377   24.5144 C   0  0  0  0  0  0  0  0  0  0  0  0
    5.7268    5.4910   24.5608 C   0  0  0  0  0  0  0  0  0  0  0  0
    5.0147    5.5238   25.8512 N   0  0  0  0  0  0  0  0  0  0  0  0
    5.1813    4.3800   26.7336 C   0  0  0  0  0  0  0  0  0  0  0  0
    4.1162    4.6398   27.7841 C   0  0  0  0  0  0  0  0  0  0  0  0
    2.9785    5.3318   27.0450 C   0  0  0  0  0  0  0  0  0  0  0  0
    3.5602    5.6831   25.6869 C   0  0  0  0  0  0  0  0  0  0  0  0
    7.6096    4.9100   23.1087 O   0  0  0  0  0  0  0  0  0  0  0  0
    8.5739    3.9968   22.7681 C   0  0  0  0  0  0  0  0  0  0  0  0
    9.1717    3.2800   23.5564 O   0  0  0  0  0  0  0  0  0  0  0  0
    8.7834    3.9890   21.2647 C   0  0  0  0  0  0  0  0  0  0  0  0
    9.4196    2.7851   20.6098 C   0  0  0  0  0  0  0  0  0  0  0  0
   10.6135    3.5006   19.9979 C   0  0  0  0  0  0  0  0  0  0  0  0
   10.3217    4.9068   19.5200 N   0  0  0  0  0  0  0  0  0  0  0  0
    9.5606    4.8955   18.2332 C   0  0  0  0  0  0  0  0  0  0  0  0
    8.4062    4.8875   18.0354 O   0  0  0  0  0  0  0  0  0  0  0  0
   10.5009    4.9303   17.2512 O   0  0  0  0  0  0  0  0  0  0  0  0
   10.1341    5.1515   15.8655 C   0  0  0  0  0  0  0  0  0  0  0  0
    9.6050    6.5785   15.6831 C   0  0  0  0  0  0  0  0  0  0  0  0
   11.4490    5.0049   15.0860 C   0  0  0  0  0  0  0  0  0  0  0  0
    9.1343    4.1151   15.3437 C   0  0  0  0  0  0  0  0  0  0  0  0
    9.8464    5.0126   20.9299 C   0  0  0  0  0  0  0  0  0  0  0  0
    8.0873    7.0192   24.6847 H   0  0  0  0  0  0  0  0  0  0  0  0
    9.1808    5.7198   25.1308 H   0  0  0  0  0  0  0  0  0  0  0  0
    7.8786    6.1859   26.2431 H   0  0  0  0  0  0  0  0  0  0  0  0
    7.3189    4.0631   25.0013 H   0  0  0  0  0  0  0  0  0  0  0  0
    5.6749    6.5000   24.1282 H   0  0  0  0  0  0  0  0  0  0  0  0
    5.1734    4.8749   23.8507 H   0  0  0  0  0  0  0  0  0  0  0  0
    6.1768    4.3376   27.1854 H   0  0  0  0  0  0  0  0  0  0  0  0
    4.9839    3.4325   26.2271 H   0  0  0  0  0  0  0  0  0  0  0  0
    4.5057    5.3059   28.5642 H   0  0  0  0  0  0  0  0  0  0  0  0
    3.7858    3.7167   28.2706 H   0  0  0  0  0  0  0  0  0  0  0  0
    2.6582    6.2255   27.5914 H   0  0  0  0  0  0  0  0  0  0  0  0
    2.1130    4.6692   26.9403 H   0  0  0  0  0  0  0  0  0  0  0  0
    3.1635    4.9913   24.9330 H   0  0  0  0  0  0  0  0  0  0  0  0
    3.2991    6.7037   25.3892 H   0  0  0  0  0  0  0  0  0  0  0  0
    7.8269    4.2018   20.7716 H   0  0  0  0  0  0  0  0  0  0  0  0
    8.7624    2.3679   19.8393 H   0  0  0  0  0  0  0  0  0  0  0  0
    9.7176    1.9881   21.2957 H   0  0  0  0  0  0  0  0  0  0  0  0
   11.5078    3.4841   20.6451 H   0  0  0  0  0  0  0  0  0  0  0  0
   10.9252    2.9388   19.1076 H   0  0  0  0  0  0  0  0  0  0  0  0
    9.4368    6.8108   14.6261 H   0  0  0  0  0  0  0  0  0  0  0  0
   10.3103    7.3102   16.0931 H   0  0  0  0  0  0  0  0  0  0  0  0
    8.6589    6.7282   16.2134 H   0  0  0  0  0  0  0  0  0  0  0  0
   11.8744    4.0046   15.2263 H   0  0  0  0  0  0  0  0  0  0  0  0
   11.3081    5.1740   14.0133 H   0  0  0  0  0  0  0  0  0  0  0  0
   12.2008    5.7141   15.4517 H   0  0  0  0  0  0  0  0  0  0  0  0
    9.0751    4.1392   14.2501 H   0  0  0  0  0  0  0  0  0  0  0  0
    8.1219    4.2942   15.7188 H   0  0  0  0  0  0  0  0  0  0  0  0
    9.4122    3.1063   15.6596 H   0  0  0  0  0  0  0  0  0  0  0  0
    9.3724    6.0038   20.9805 H   0  0  0  0  0  0  0  0  0  0  0  0
   10.6846    5.0858   21.6450 H   0  0  0  0  0  0  0  0  0  0  0  0
  1  2  1  0
  2  3  1  0
  3  4  1  0
  4  5  1  0
  5  6  1  0
  6  7  1  0
  7  8  1  0
  2  9  1  0
  9 10  1  0
 10 11  2  0
 10 12  1  0
 12 13  1  0
 13 14  1  0
 14 15  1  0
 15 16  1  0
 16 17  2  0
 16 18  1  0
 18 19  1  0
 19 20  1  0
 19 21  1  0
 19 22  1  0
 15 23  1  0
  8  4  1  0
 23 12  1  0
  1 24  1  0
  1 25  1  0
  1 26  1  0
  2 27  1  0
  3 28  1  0
  3 29  1  0
  5 30  1  0
  5 31  1  0
  6 32  1  0
  6 33  1  0
  7 34  1  0
  7 35  1  0
  8 36  1  0
  8 37  1  0
 12 38  1  0
 13 39  1  0
 13 40  1  0
 14 41  1  0
 14 42  1  0
 20 43  1  0
 20 44  1  0
 20 45  1  0
 21 46  1  0
 21 47  1  0
 21 48  1  0
 22 49  1  0
 22 50  1  0
 22 51  1  0
 23 52  1  0
 23 53  1  0
M  END
>  <Energy>  (913) 
47.113714296725014

>  <compound_id>  (913) 
14629

>  <target_id>  (913) 
1

>  <reference_id>  (913) 
124

>  <inspiration_ids>  (913) 
[53, 124]

>  <energy_score>  (913) 
19.65568662283627

>  <distance_score>  (913) 
8.42308493356174

>  <path>  (913) 
/opt/xchem-fragalysis-2/maxwin/BulkDock/SCRATCH/511016/C14629-P124/C14629-P124.minimised.mol

>  <scratch_subdir>  (913) 
/opt/xchem-fragalysis-2/maxwin/BulkDock/SCRATCH/511016/C14629-P124

>  <fragmenstein_runtime>  (913) 
11.417299747467041

>  <fragmenstein_outcome>  (913) 
too moved

>  <fragmenstein_mode>  (913) 
expansion

>  <fragmenstein_error>  (913) 


$$$$
C14632-P53
     RDKit          3D

 49 51  0  0  0  0  0  0  0  0999 V2000
   15.7861    2.4380   24.1861 C   0  0  0  0  0  0  0  0  0  0  0  0
   14.7439    3.4018   24.2221 O   0  0  0  0  0  0  0  0  0  0  0  0
   14.1839    3.6956   22.9356 C   0  0  0  0  0  0  0  0  0  0  0  0
   13.1963    2.6300   22.3980 C   0  0  0  0  0  0  0  0  0  0  0  0
   13.8714    1.4248   21.9400 N   0  0  0  0  0  0  0  0  0  0  0  0
   14.8198    1.2214   20.8787 C   0  0  0  0  0  0  0  0  0  0  0  0
   15.3561    2.0029   20.1516 O   0  0  0  0  0  0  0  0  0  0  0  0
   15.1414   -0.3136   20.7168 C   0  0  0  0  0  0  0  0  0  0  0  0
   14.3951   -1.0742   21.2730 O   0  0  0  0  0  0  0  0  0  0  0  0
   16.3326   -0.5625   19.9682 N   0  0  0  0  0  0  0  0  0  0  0  0
   17.0898   -1.8302   19.7303 C   0  0  0  0  0  0  0  0  0  0  0  0
   16.2701   -2.9302   19.0761 C   0  0  0  0  0  0  0  0  0  0  0  0
   15.3356   -2.1106   18.2346 C   0  0  0  0  0  0  0  0  0  0  0  0
   15.2298   -2.5716   16.8474 N   0  0  0  0  0  0  0  0  0  0  0  0
   14.3822   -1.7308   15.9992 C   0  0  0  0  0  0  0  0  0  0  0  0
   14.1594   -2.6023   14.7757 C   0  0  0  0  0  0  0  0  0  0  0  0
   14.1183   -4.0205   15.3265 C   0  0  0  0  0  0  0  0  0  0  0  0
   14.6080   -3.9081   16.7651 C   0  0  0  0  0  0  0  0  0  0  0  0
   16.0029   -0.7500   18.4924 C   0  0  0  0  0  0  0  0  0  0  0  0
   12.1266    2.3016   23.4194 C   0  0  0  0  0  0  0  0  0  0  0  0
   10.9727    3.2512   23.6796 C   0  0  0  0  0  0  0  0  0  0  0  0
   10.7240    1.9389   22.9972 C   0  0  0  0  0  0  0  0  0  0  0  0
   16.5170    2.6703   23.4056 H   0  0  0  0  0  0  0  0  0  0  0  0
   16.2974    2.4574   25.1527 H   0  0  0  0  0  0  0  0  0  0  0  0
   15.3796    1.4338   24.0468 H   0  0  0  0  0  0  0  0  0  0  0  0
   13.6339    4.6352   23.0637 H   0  0  0  0  0  0  0  0  0  0  0  0
   14.9873    3.8984   22.2176 H   0  0  0  0  0  0  0  0  0  0  0  0
   12.7312    3.0540   21.4987 H   0  0  0  0  0  0  0  0  0  0  0  0
   13.5639    0.5133   22.2919 H   0  0  0  0  0  0  0  0  0  0  0  0
   18.0400   -1.6235   19.2115 H   0  0  0  0  0  0  0  0  0  0  0  0
   17.3869   -2.1811   20.7275 H   0  0  0  0  0  0  0  0  0  0  0  0
   15.7152   -3.5213   19.8132 H   0  0  0  0  0  0  0  0  0  0  0  0
   16.9239   -3.6095   18.5189 H   0  0  0  0  0  0  0  0  0  0  0  0
   14.3431   -2.1193   18.7014 H   0  0  0  0  0  0  0  0  0  0  0  0
   14.8595   -0.7817   15.7382 H   0  0  0  0  0  0  0  0  0  0  0  0
   13.4149   -1.5312   16.4697 H   0  0  0  0  0  0  0  0  0  0  0  0
   14.9976   -2.5011   14.0756 H   0  0  0  0  0  0  0  0  0  0  0  0
   13.2406   -2.3411   14.2417 H   0  0  0  0  0  0  0  0  0  0  0  0
   14.7675   -4.6756   14.7362 H   0  0  0  0  0  0  0  0  0  0  0  0
   13.1028   -4.4300   15.2929 H   0  0  0  0  0  0  0  0  0  0  0  0
   13.7516   -4.0005   17.4460 H   0  0  0  0  0  0  0  0  0  0  0  0
   15.3256   -4.6992   17.0019 H   0  0  0  0  0  0  0  0  0  0  0  0
   15.3186    0.0565   18.2135 H   0  0  0  0  0  0  0  0  0  0  0  0
   16.8916   -0.5643   17.8633 H   0  0  0  0  0  0  0  0  0  0  0  0
   12.5400    1.7896   24.2834 H   0  0  0  0  0  0  0  0  0  0  0  0
   10.9002    4.1551   23.0860 H   0  0  0  0  0  0  0  0  0  0  0  0
   10.6417    3.3657   24.7058 H   0  0  0  0  0  0  0  0  0  0  0  0
   10.2428    1.1428   23.5534 H   0  0  0  0  0  0  0  0  0  0  0  0
   10.4888    1.9477   21.9399 H   0  0  0  0  0  0  0  0  0  0  0  0
  1  2  1  0
  2  3  1  0
  3  4  1  0
  4  5  1  0
  5  6  1  0
  6  7  2  0
  6  8  1  0
  8  9  2  0
  8 10  1  0
 10 11  1  0
 11 12  1  0
 12 13  1  0
 13 14  1  0
 14 15  1  0
 15 16  1  0
 16 17  1  0
 17 18  1  0
 13 19  1  0
  4 20  1  0
 20 21  1  0
 21 22  1  0
 19 10  1  0
 22 20  1  0
 18 14  1  0
  1 23  1  0
  1 24  1  0
  1 25  1  0
  3 26  1  0
  3 27  1  0
  4 28  1  0
  5 29  1  0
 11 30  1  0
 11 31  1  0
 12 32  1  0
 12 33  1  0
 13 34  1  0
 15 35  1  0
 15 36  1  0
 16 37  1  0
 16 38  1  0
 17 39  1  0
 17 40  1  0
 18 41  1  0
 18 42  1  0
 19 43  1  0
 19 44  1  0
 20 45  1  0
 21 46  1  0
 21 47  1  0
 22 48  1  0
 22 49  1  0
M  END
>  <Energy>  (914) 
159.95592261594228

>  <compound_id>  (914) 
14632

>  <target_id>  (914) 
1

>  <reference_id>  (914) 
53

>  <inspiration_ids>  (914) 
[53, 124]

>  <energy_score>  (914) 
1.8737099107615904

>  <distance_score>  (914) 
5.439589197848322

>  <path>  (914) 
/opt/xchem-fragalysis-2/maxwin/BulkDock/SCRATCH/511016/C14632-P53/C14632-P53.minimised.mol

>  <scratch_subdir>  (914) 
/opt/xchem-fragalysis-2/maxwin/BulkDock/SCRATCH/511016/C14632-P53

>  <fragmenstein_runtime>  (914) 
7.655451536178589

>  <fragmenstein_outcome>  (914) 
too moved

>  <fragmenstein_mode>  (914) 
expansion

>  <fragmenstein_error>  (914) 


$$$$
C14632-P124
     RDKit          3D

 49 51  0  0  0  0  0  0  0  0999 V2000
   10.3311    4.0620   17.9795 C   0  0  0  0  0  0  0  0  0  0  0  0
   10.2594    3.2972   19.1779 O   0  0  0  0  0  0  0  0  0  0  0  0
   10.4501    4.1304   20.3320 C   0  0  0  0  0  0  0  0  0  0  0  0
   10.6858    3.2514   21.5789 C   0  0  0  0  0  0  0  0  0  0  0  0
   11.9721    2.5663   21.5596 N   0  0  0  0  0  0  0  0  0  0  0  0
   13.2509    2.9729   21.0381 C   0  0  0  0  0  0  0  0  0  0  0  0
   13.6041    4.0080   20.5578 O   0  0  0  0  0  0  0  0  0  0  0  0
   14.2634    1.7632   21.1343 C   0  0  0  0  0  0  0  0  0  0  0  0
   13.8520    0.7808   21.6934 O   0  0  0  0  0  0  0  0  0  0  0  0
   15.5192    2.0144   20.5016 N   0  0  0  0  0  0  0  0  0  0  0  0
   16.7519    1.1863   20.4291 C   0  0  0  0  0  0  0  0  0  0  0  0
   16.5062   -0.1905   19.8500 C   0  0  0  0  0  0  0  0  0  0  0  0
   16.0377    0.2850   18.5217 C   0  0  0  0  0  0  0  0  0  0  0  0
   15.1447   -0.5900   17.7540 N   0  0  0  0  0  0  0  0  0  0  0  0
   15.1228   -0.2550   16.3178 C   0  0  0  0  0  0  0  0  0  0  0  0
   14.5526   -1.4963   15.6341 C   0  0  0  0  0  0  0  0  0  0  0  0
   14.6403   -2.6016   16.6782 C   0  0  0  0  0  0  0  0  0  0  0  0
   15.4991   -2.0128   17.7873 C   0  0  0  0  0  0  0  0  0  0  0  0
   15.4507    1.6378   19.0026 C   0  0  0  0  0  0  0  0  0  0  0  0
   10.5230    4.0452   22.8545 C   0  0  0  0  0  0  0  0  0  0  0  0
    9.8951    3.4312   24.0855 C   0  0  0  0  0  0  0  0  0  0  0  0
    9.1489    4.4859   23.3220 C   0  0  0  0  0  0  0  0  0  0  0  0
    9.6020    4.8779   17.9993 H   0  0  0  0  0  0  0  0  0  0  0  0
   10.0962    3.4070   17.1374 H   0  0  0  0  0  0  0  0  0  0  0  0
   11.3414    4.4591   17.8433 H   0  0  0  0  0  0  0  0  0  0  0  0
   11.2800    4.8275   20.1745 H   0  0  0  0  0  0  0  0  0  0  0  0
    9.5383    4.7257   20.4605 H   0  0  0  0  0  0  0  0  0  0  0  0
    9.9450    2.4412   21.5625 H   0  0  0  0  0  0  0  0  0  0  0  0
   12.0601    1.6336   21.9674 H   0  0  0  0  0  0  0  0  0  0  0  0
   17.5720    1.7482   19.9516 H   0  0  0  0  0  0  0  0  0  0  0  0
   17.0617    1.0537   21.4741 H   0  0  0  0  0  0  0  0  0  0  0  0
   17.4128   -0.8000   19.7992 H   0  0  0  0  0  0  0  0  0  0  0  0
   15.7384   -0.7308   20.4144 H   0  0  0  0  0  0  0  0  0  0  0  0
   16.9313    0.4967   17.9149 H   0  0  0  0  0  0  0  0  0  0  0  0
   16.1339   -0.0746   15.9304 H   0  0  0  0  0  0  0  0  0  0  0  0
   14.5201    0.6344   16.1119 H   0  0  0  0  0  0  0  0  0  0  0  0
   15.1398   -1.7500   14.7448 H   0  0  0  0  0  0  0  0  0  0  0  0
   13.5152   -1.3481   15.3162 H   0  0  0  0  0  0  0  0  0  0  0  0
   15.0714   -3.5205   16.2692 H   0  0  0  0  0  0  0  0  0  0  0  0
   13.6377   -2.8400   17.0532 H   0  0  0  0  0  0  0  0  0  0  0  0
   15.2668   -2.4795   18.7494 H   0  0  0  0  0  0  0  0  0  0  0  0
   16.5622   -2.1674   17.5634 H   0  0  0  0  0  0  0  0  0  0  0  0
   14.3997    1.7141   18.7089 H   0  0  0  0  0  0  0  0  0  0  0  0
   15.9406    2.4616   18.4581 H   0  0  0  0  0  0  0  0  0  0  0  0
   11.3397    4.7463   22.9995 H   0  0  0  0  0  0  0  0  0  0  0  0
   10.3164    3.6991   25.0487 H   0  0  0  0  0  0  0  0  0  0  0  0
    9.5448    2.4078   24.0317 H   0  0  0  0  0  0  0  0  0  0  0  0
    9.0614    5.4694   23.7714 H   0  0  0  0  0  0  0  0  0  0  0  0
    8.2812    4.1848   22.7483 H   0  0  0  0  0  0  0  0  0  0  0  0
  1  2  1  0
  2  3  1  0
  3  4  1  0
  4  5  1  0
  5  6  1  0
  6  7  2  0
  6  8  1  0
  8  9  2  0
  8 10  1  0
 10 11  1  0
 11 12  1  0
 12 13  1  0
 13 14  1  0
 14 15  1  0
 15 16  1  0
 16 17  1  0
 17 18  1  0
 13 19  1  0
  4 20  1  0
 20 21  1  0
 21 22  1  0
 19 10  1  0
 22 20  1  0
 18 14  1  0
  1 23  1  0
  1 24  1  0
  1 25  1  0
  3 26  1  0
  3 27  1  0
  4 28  1  0
  5 29  1  0
 11 30  1  0
 11 31  1  0
 12 32  1  0
 12 33  1  0
 13 34  1  0
 15 35  1  0
 15 36  1  0
 16 37  1  0
 16 38  1  0
 17 39  1  0
 17 40  1  0
 18 41  1  0
 18 42  1  0
 19 43  1  0
 19 44  1  0
 20 45  1  0
 21 46  1  0
 21 47  1  0
 22 48  1  0
 22 49  1  0
M  END
>  <Energy>  (915) 
168.51050926061566

>  <compound_id>  (915) 
14632

>  <target_id>  (915) 
1

>  <reference_id>  (915) 
124

>  <inspiration_ids>  (915) 
[53, 124]

>  <energy_score>  (915) 
10.428296555434713

>  <distance_score>  (915) 
5.14194852191786

>  <path>  (915) 
/opt/xchem-fragalysis-2/maxwin/BulkDock/SCRATCH/511016/C14632-P124/C14632-P124.minimised.mol

>  <scratch_subdir>  (915) 
/opt/xchem-fragalysis-2/maxwin/BulkDock/SCRATCH/511016/C14632-P124

>  <fragmenstein_runtime>  (915) 
8.780079126358032

>  <fragmenstein_outcome>  (915) 
too moved

>  <fragmenstein_mode>  (915) 
expansion

>  <fragmenstein_error>  (915) 


$$$$
C14633-P53
     RDKit          3D

 58 59  0  0  0  0  0  0  0  0999 V2000
   12.1557    1.3263   23.2603 C   0  0  0  0  0  0  0  0  0  0  0  0
   11.9853    1.4202   24.7989 C   0  0  0  0  0  0  0  0  0  0  0  0
   13.3529    1.7650   25.4304 C   0  0  0  0  0  0  0  0  0  0  0  0
   11.3613    0.0352   25.3280 N   0  0  0  0  0  0  0  0  0  0  0  0
   10.3613    0.9717   25.9450 C   0  0  0  0  0  0  0  0  0  0  0  0
    9.3219    0.0933   26.7347 C   0  0  0  0  0  0  0  0  0  0  0  0
    8.1418    0.8721   27.3123 N   0  0  0  0  0  0  0  0  0  0  0  0
    8.9047    0.6621   28.5873 C   0  0  0  0  0  0  0  0  0  0  0  0
    7.7749    2.2556   27.1786 C   0  0  0  0  0  0  0  0  0  0  0  0
    8.3541    3.1708   26.6513 O   0  0  0  0  0  0  0  0  0  0  0  0
    6.3718    2.4587   27.8257 C   0  0  0  0  0  0  0  0  0  0  0  0
    5.4026    3.0924   26.9009 N   0  0  0  0  0  0  0  0  0  0  0  0
    4.0497    3.0964   27.4694 C   0  0  0  0  0  0  0  0  0  0  0  0
    3.3142    4.0758   26.5720 C   0  0  0  0  0  0  0  0  0  0  0  0
    4.3735    5.0919   26.1689 C   0  0  0  0  0  0  0  0  0  0  0  0
    5.6987    4.5083   26.6489 C   0  0  0  0  0  0  0  0  0  0  0  0
   12.3861   -0.7730   25.9325 C   0  0  0  0  0  0  0  0  0  0  0  0
   12.7605   -0.8341   27.0748 O   0  0  0  0  0  0  0  0  0  0  0  0
   12.9558   -1.7361   24.8863 C   0  0  0  0  0  0  0  0  0  0  0  0
   12.0176   -2.9071   24.6129 C   0  0  0  0  0  0  0  0  0  0  0  0
   12.9575   -3.9513   24.0490 C   0  0  0  0  0  0  0  0  0  0  0  0
   14.1043   -3.8482   24.9515 N   0  0  0  0  0  0  0  0  0  0  0  0
   15.3098   -4.4472   24.4028 C   0  0  0  0  0  0  0  0  0  0  0  0
   14.2680   -2.4213   25.2869 C   0  0  0  0  0  0  0  0  0  0  0  0
   11.1934    1.1061   22.7904 H   0  0  0  0  0  0  0  0  0  0  0  0
   12.8967    0.5842   22.9630 H   0  0  0  0  0  0  0  0  0  0  0  0
   12.4978    2.2891   22.8628 H   0  0  0  0  0  0  0  0  0  0  0  0
   11.3952    2.3510   24.8961 H   0  0  0  0  0  0  0  0  0  0  0  0
   13.7077    2.7323   25.0568 H   0  0  0  0  0  0  0  0  0  0  0  0
   14.1212    1.0249   25.1846 H   0  0  0  0  0  0  0  0  0  0  0  0
   13.2753    1.8416   26.5196 H   0  0  0  0  0  0  0  0  0  0  0  0
    9.7573    1.4812   25.1788 H   0  0  0  0  0  0  0  0  0  0  0  0
   10.8138    1.6356   26.6966 H   0  0  0  0  0  0  0  0  0  0  0  0
    9.7960   -0.7273   27.3041 H   0  0  0  0  0  0  0  0  0  0  0  0
    8.8143   -0.4927   25.9513 H   0  0  0  0  0  0  0  0  0  0  0  0
    8.8633   -0.3773   28.9472 H   0  0  0  0  0  0  0  0  0  0  0  0
    8.3482    1.2115   29.3619 H   0  0  0  0  0  0  0  0  0  0  0  0
    9.9027    1.1237   28.6259 H   0  0  0  0  0  0  0  0  0  0  0  0
    6.5055    3.0445   28.7435 H   0  0  0  0  0  0  0  0  0  0  0  0
    5.9783    1.4773   28.1194 H   0  0  0  0  0  0  0  0  0  0  0  0
    3.5896    2.1037   27.4426 H   0  0  0  0  0  0  0  0  0  0  0  0
    4.0458    3.4598   28.5051 H   0  0  0  0  0  0  0  0  0  0  0  0
    2.4657    4.5441   27.0801 H   0  0  0  0  0  0  0  0  0  0  0  0
    2.9332    3.5649   25.6792 H   0  0  0  0  0  0  0  0  0  0  0  0
    4.3678    5.2322   25.0823 H   0  0  0  0  0  0  0  0  0  0  0  0
    4.1865    6.0654   26.6344 H   0  0  0  0  0  0  0  0  0  0  0  0
    6.4728    4.6437   25.8883 H   0  0  0  0  0  0  0  0  0  0  0  0
    6.0137    5.0279   27.5627 H   0  0  0  0  0  0  0  0  0  0  0  0
   13.1442   -1.2014   23.9542 H   0  0  0  0  0  0  0  0  0  0  0  0
   11.5539   -3.2618   25.5431 H   0  0  0  0  0  0  0  0  0  0  0  0
   11.2093   -2.6603   23.9284 H   0  0  0  0  0  0  0  0  0  0  0  0
   13.2243   -3.7006   23.0143 H   0  0  0  0  0  0  0  0  0  0  0  0
   12.5117   -4.9504   24.0682 H   0  0  0  0  0  0  0  0  0  0  0  0
   15.1510   -5.5127   24.2043 H   0  0  0  0  0  0  0  0  0  0  0  0
   15.6248   -3.9676   23.4692 H   0  0  0  0  0  0  0  0  0  0  0  0
   16.1334   -4.3756   25.1214 H   0  0  0  0  0  0  0  0  0  0  0  0
   15.0916   -1.9591   24.7273 H   0  0  0  0  0  0  0  0  0  0  0  0
   14.5083   -2.3297   26.3504 H   0  0  0  0  0  0  0  0  0  0  0  0
  1  2  1  0
  2  3  1  0
  2  4  1  0
  4  5  1  0
  5  6  1  0
  6  7  1  0
  7  8  1  0
  7  9  1  0
  9 10  2  0
  9 11  1  0
 11 12  1  0
 12 13  1  0
 13 14  1  0
 14 15  1  0
 15 16  1  0
  4 17  1  0
 17 18  2  0
 17 19  1  0
 19 20  1  0
 20 21  1  0
 21 22  1  0
 22 23  1  0
 22 24  1  0
 16 12  1  0
 24 19  1  0
  1 25  1  0
  1 26  1  0
  1 27  1  0
  2 28  1  0
  3 29  1  0
  3 30  1  0
  3 31  1  0
  5 32  1  0
  5 33  1  0
  6 34  1  0
  6 35  1  0
  8 36  1  0
  8 37  1  0
  8 38  1  0
 11 39  1  0
 11 40  1  0
 13 41  1  0
 13 42  1  0
 14 43  1  0
 14 44  1  0
 15 45  1  0
 15 46  1  0
 16 47  1  0
 16 48  1  0
 19 49  1  0
 20 50  1  0
 20 51  1  0
 21 52  1  0
 21 53  1  0
 23 54  1  0
 23 55  1  0
 23 56  1  0
 24 57  1  0
 24 58  1  0
M  END
>  <Energy>  (916) 
204.10162463747068

>  <compound_id>  (916) 
14633

>  <target_id>  (916) 
1

>  <reference_id>  (916) 
53

>  <inspiration_ids>  (916) 
[53, 124]

>  <energy_score>  (916) 
64.33241716544347

>  <distance_score>  (916) 
9.247622663213546

>  <path>  (916) 
/opt/xchem-fragalysis-2/maxwin/BulkDock/SCRATCH/511016/C14633-P53/C14633-P53.minimised.mol

>  <scratch_subdir>  (916) 
/opt/xchem-fragalysis-2/maxwin/BulkDock/SCRATCH/511016/C14633-P53

>  <fragmenstein_runtime>  (916) 
21.450359344482422

>  <fragmenstein_outcome>  (916) 
too moved

>  <fragmenstein_mode>  (916) 
expansion

>  <fragmenstein_error>  (916) 


$$$$
C14633-P124
     RDKit          3D

 58 59  0  0  0  0  0  0  0  0999 V2000
   11.1698    2.1321   21.4778 C   0  0  0  0  0  0  0  0  0  0  0  0
   11.0047    3.3764   22.3899 C   0  0  0  0  0  0  0  0  0  0  0  0
   12.3617    4.1204   22.3597 C   0  0  0  0  0  0  0  0  0  0  0  0
    9.8831    4.4007   21.8901 N   0  0  0  0  0  0  0  0  0  0  0  0
    9.6101    4.4873   23.3760 C   0  0  0  0  0  0  0  0  0  0  0  0
    8.6312    5.6825   23.6574 C   0  0  0  0  0  0  0  0  0  0  0  0
    7.5447    5.2906   24.6415 N   0  0  0  0  0  0  0  0  0  0  0  0
    6.7028    5.3466   23.4027 C   0  0  0  0  0  0  0  0  0  0  0  0
    6.9229    6.0367   25.6936 C   0  0  0  0  0  0  0  0  0  0  0  0
    7.0402    7.1939   26.0075 O   0  0  0  0  0  0  0  0  0  0  0  0
    6.0555    5.0822   26.5552 C   0  0  0  0  0  0  0  0  0  0  0  0
    4.6494    5.0442   26.1088 N   0  0  0  0  0  0  0  0  0  0  0  0
    3.8369    4.1718   26.9618 C   0  0  0  0  0  0  0  0  0  0  0  0
    2.4168    4.5604   26.5846 C   0  0  0  0  0  0  0  0  0  0  0  0
    2.5164    6.0116   26.1307 C   0  0  0  0  0  0  0  0  0  0  0  0
    3.9968    6.3545   26.2093 C   0  0  0  0  0  0  0  0  0  0  0  0
    9.1144    3.8155   20.8308 C   0  0  0  0  0  0  0  0  0  0  0  0
    8.1025    3.1663   20.8663 O   0  0  0  0  0  0  0  0  0  0  0  0
    9.7134    4.2264   19.4815 C   0  0  0  0  0  0  0  0  0  0  0  0
    9.3785    3.2366   18.3566 C   0  0  0  0  0  0  0  0  0  0  0  0
    8.3314    3.9539   17.5216 C   0  0  0  0  0  0  0  0  0  0  0  0
    8.7815    5.3451   17.6146 N   0  0  0  0  0  0  0  0  0  0  0  0
    7.7764    6.2776   17.1210 C   0  0  0  0  0  0  0  0  0  0  0  0
    9.0812    5.5493   19.0379 C   0  0  0  0  0  0  0  0  0  0  0  0
   11.4864    2.4185   20.4736 H   0  0  0  0  0  0  0  0  0  0  0  0
   10.2431    1.5532   21.4253 H   0  0  0  0  0  0  0  0  0  0  0  0
   11.9416    1.4699   21.8871 H   0  0  0  0  0  0  0  0  0  0  0  0
   10.8788    2.8933   23.3764 H   0  0  0  0  0  0  0  0  0  0  0  0
   12.5940    4.4692   21.3475 H   0  0  0  0  0  0  0  0  0  0  0  0
   13.1729    3.4602   22.6848 H   0  0  0  0  0  0  0  0  0  0  0  0
   12.3654    4.9982   23.0126 H   0  0  0  0  0  0  0  0  0  0  0  0
   10.4807    4.7304   24.0046 H   0  0  0  0  0  0  0  0  0  0  0  0
    9.0807    3.5776   23.7038 H   0  0  0  0  0  0  0  0  0  0  0  0
    8.4363    6.3265   22.7789 H   0  0  0  0  0  0  0  0  0  0  0  0
    9.2226    6.3857   24.2685 H   0  0  0  0  0  0  0  0  0  0  0  0
    6.9944    4.6572   22.6022 H   0  0  0  0  0  0  0  0  0  0  0  0
    5.7100    4.9905   23.6995 H   0  0  0  0  0  0  0  0  0  0  0  0
    6.4947    6.3751   23.0644 H   0  0  0  0  0  0  0  0  0  0  0  0
    6.4851    4.0740   26.4979 H   0  0  0  0  0  0  0  0  0  0  0  0
    6.1448    5.4055   27.6006 H   0  0  0  0  0  0  0  0  0  0  0  0
    4.0290    3.1114   26.7713 H   0  0  0  0  0  0  0  0  0  0  0  0
    4.0066    4.3714   28.0279 H   0  0  0  0  0  0  0  0  0  0  0  0
    1.7266    4.4421   27.4260 H   0  0  0  0  0  0  0  0  0  0  0  0
    2.0514    3.9378   25.7591 H   0  0  0  0  0  0  0  0  0  0  0  0
    2.1463    6.1062   25.1028 H   0  0  0  0  0  0  0  0  0  0  0  0
    1.9191    6.6751   26.7647 H   0  0  0  0  0  0  0  0  0  0  0  0
    4.2126    6.8447   27.1677 H   0  0  0  0  0  0  0  0  0  0  0  0
    4.2866    7.0289   25.3970 H   0  0  0  0  0  0  0  0  0  0  0  0
   10.8009    4.3321   19.5592 H   0  0  0  0  0  0  0  0  0  0  0  0
   10.2793    3.0711   17.7538 H   0  0  0  0  0  0  0  0  0  0  0  0
    9.0221    2.2634   18.7058 H   0  0  0  0  0  0  0  0  0  0  0  0
    7.3341    3.8147   17.9574 H   0  0  0  0  0  0  0  0  0  0  0  0
    8.3220    3.5896   16.4895 H   0  0  0  0  0  0  0  0  0  0  0  0
    7.5817    6.0995   16.0582 H   0  0  0  0  0  0  0  0  0  0  0  0
    6.8263    6.1962   17.6616 H   0  0  0  0  0  0  0  0  0  0  0  0
    8.1363    7.3082   17.2118 H   0  0  0  0  0  0  0  0  0  0  0  0
    8.1747    5.7747   19.6155 H   0  0  0  0  0  0  0  0  0  0  0  0
    9.7801    6.3827   19.1695 H   0  0  0  0  0  0  0  0  0  0  0  0
  1  2  1  0
  2  3  1  0
  2  4  1  0
  4  5  1  0
  5  6  1  0
  6  7  1  0
  7  8  1  0
  7  9  1  0
  9 10  2  0
  9 11  1  0
 11 12  1  0
 12 13  1  0
 13 14  1  0
 14 15  1  0
 15 16  1  0
  4 17  1  0
 17 18  2  0
 17 19  1  0
 19 20  1  0
 20 21  1  0
 21 22  1  0
 22 23  1  0
 22 24  1  0
 16 12  1  0
 24 19  1  0
  1 25  1  0
  1 26  1  0
  1 27  1  0
  2 28  1  0
  3 29  1  0
  3 30  1  0
  3 31  1  0
  5 32  1  0
  5 33  1  0
  6 34  1  0
  6 35  1  0
  8 36  1  0
  8 37  1  0
  8 38  1  0
 11 39  1  0
 11 40  1  0
 13 41  1  0
 13 42  1  0
 14 43  1  0
 14 44  1  0
 15 45  1  0
 15 46  1  0
 16 47  1  0
 16 48  1  0
 19 49  1  0
 20 50  1  0
 20 51  1  0
 21 52  1  0
 21 53  1  0
 23 54  1  0
 23 55  1  0
 23 56  1  0
 24 57  1  0
 24 58  1  0
M  END
>  <Energy>  (917) 
202.14724784238359

>  <compound_id>  (917) 
14633

>  <target_id>  (917) 
1

>  <reference_id>  (917) 
124

>  <inspiration_ids>  (917) 
[53, 124]

>  <energy_score>  (917) 
62.37804037035818

>  <distance_score>  (917) 
8.935628378860986

>  <path>  (917) 
/opt/xchem-fragalysis-2/maxwin/BulkDock/SCRATCH/511016/C14633-P124/C14633-P124.minimised.mol

>  <scratch_subdir>  (917) 
/opt/xchem-fragalysis-2/maxwin/BulkDock/SCRATCH/511016/C14633-P124

>  <fragmenstein_runtime>  (917) 
26.7080078125

>  <fragmenstein_outcome>  (917) 
too moved

>  <fragmenstein_mode>  (917) 
expansion

>  <fragmenstein_error>  (917) 


$$$$
C14635-P53
     RDKit          3D

 40 41  0  0  0  0  0  0  0  0999 V2000
   10.6472    2.4331   23.4063 N   0  0  0  0  0  0  0  0  0  0  0  0
   11.6907    2.0276   23.0430 C   0  0  0  0  0  0  0  0  0  0  0  0
   13.1236    1.3708   22.7276 C   0  0  0  0  0  0  0  0  0  0  0  0
   14.0508    1.5230   21.3448 C   0  0  0  0  0  0  0  0  0  0  0  0
   15.1304    2.4277   21.6420 O   0  0  0  0  0  0  0  0  0  0  0  0
   14.7563    0.1037   20.8729 C   0  0  0  0  0  0  0  0  0  0  0  0
   15.9379    0.0089   19.9169 N   0  0  0  0  0  0  0  0  0  0  0  0
   16.5524   -1.3664   19.9323 C   0  0  0  0  0  0  0  0  0  0  0  0
   16.4543   -1.9848   18.5140 C   0  0  0  0  0  0  0  0  0  0  0  0
   15.2713   -1.2320   17.9491 C   0  0  0  0  0  0  0  0  0  0  0  0
   14.9787   -1.3585   16.4312 C   0  0  0  0  0  0  0  0  0  0  0  0
   13.6657   -1.9856   16.1944 N   0  0  0  0  0  0  0  0  0  0  0  0
   13.1614   -1.8490   14.8259 C   0  0  0  0  0  0  0  0  0  0  0  0
   11.9860   -2.8145   14.8199 C   0  0  0  0  0  0  0  0  0  0  0  0
   12.4008   -3.9237   15.7772 C   0  0  0  0  0  0  0  0  0  0  0  0
   13.6760   -3.4334   16.4436 C   0  0  0  0  0  0  0  0  0  0  0  0
   15.6253    0.1744   18.4837 C   0  0  0  0  0  0  0  0  0  0  0  0
   13.7599    1.7155   23.5551 H   0  0  0  0  0  0  0  0  0  0  0  0
   12.9825    0.2985   22.8874 H   0  0  0  0  0  0  0  0  0  0  0  0
   13.4901    1.9883   20.5347 H   0  0  0  0  0  0  0  0  0  0  0  0
   15.8652    2.1722   21.0472 H   0  0  0  0  0  0  0  0  0  0  0  0
   13.9726   -0.5936   20.5699 H   0  0  0  0  0  0  0  0  0  0  0  0
   15.1525   -0.2866   21.8215 H   0  0  0  0  0  0  0  0  0  0  0  0
   17.6005   -1.2942   20.2416 H   0  0  0  0  0  0  0  0  0  0  0  0
   16.0429   -2.0223   20.6487 H   0  0  0  0  0  0  0  0  0  0  0  0
   17.3677   -1.7829   17.9423 H   0  0  0  0  0  0  0  0  0  0  0  0
   16.2913   -3.0660   18.5506 H   0  0  0  0  0  0  0  0  0  0  0  0
   14.4150   -1.6382   18.5031 H   0  0  0  0  0  0  0  0  0  0  0  0
   15.7785   -1.9089   15.9211 H   0  0  0  0  0  0  0  0  0  0  0  0
   14.9613   -0.3506   16.0007 H   0  0  0  0  0  0  0  0  0  0  0  0
   13.9126   -2.1559   14.0874 H   0  0  0  0  0  0  0  0  0  0  0  0
   12.8425   -0.8260   14.6039 H   0  0  0  0  0  0  0  0  0  0  0  0
   11.7714   -3.1949   13.8165 H   0  0  0  0  0  0  0  0  0  0  0  0
   11.0819   -2.3186   15.1925 H   0  0  0  0  0  0  0  0  0  0  0  0
   12.5712   -4.8670   15.2485 H   0  0  0  0  0  0  0  0  0  0  0  0
   11.6226   -4.0932   16.5226 H   0  0  0  0  0  0  0  0  0  0  0  0
   14.5430   -3.9173   15.9763 H   0  0  0  0  0  0  0  0  0  0  0  0
   13.6803   -3.6726   17.5116 H   0  0  0  0  0  0  0  0  0  0  0  0
   16.5178    0.5536   17.9673 H   0  0  0  0  0  0  0  0  0  0  0  0
   14.8935    0.9523   18.4136 H   0  0  0  0  0  0  0  0  0  0  0  0
  1  2  3  0
  2  3  1  0
  3  4  1  0
  4  5  1  0
  4  6  1  0
  6  7  1  0
  7  8  1  0
  8  9  1  0
  9 10  1  0
 10 11  1  0
 11 12  1  0
 12 13  1  0
 13 14  1  0
 14 15  1  0
 15 16  1  0
 10 17  1  0
 17  7  1  0
 16 12  1  0
  3 18  1  0
  3 19  1  0
  4 20  1  0
  5 21  1  0
  6 22  1  0
  6 23  1  0
  8 24  1  0
  8 25  1  0
  9 26  1  0
  9 27  1  0
 10 28  1  0
 11 29  1  0
 11 30  1  0
 13 31  1  0
 13 32  1  0
 14 33  1  0
 14 34  1  0
 15 35  1  0
 15 36  1  0
 16 37  1  0
 16 38  1  0
 17 39  1  0
 17 40  1  0
M  END
>  <Energy>  (918) 
82.955724022957128

>  <compound_id>  (918) 
14635

>  <target_id>  (918) 
1

>  <reference_id>  (918) 
53

>  <inspiration_ids>  (918) 
[53, 124]

>  <energy_score>  (918) 
4.661789077348459

>  <distance_score>  (918) 
3.359391621084422

>  <path>  (918) 
/opt/xchem-fragalysis-2/maxwin/BulkDock/SCRATCH/511016/C14635-P53/C14635-P53.minimised.mol

>  <scratch_subdir>  (918) 
/opt/xchem-fragalysis-2/maxwin/BulkDock/SCRATCH/511016/C14635-P53

>  <fragmenstein_runtime>  (918) 
3.703662395477295

>  <fragmenstein_outcome>  (918) 
too moved

>  <fragmenstein_mode>  (918) 
expansion

>  <fragmenstein_error>  (918) 


$$$$
C14635-P124
     RDKit          3D

 40 41  0  0  0  0  0  0  0  0999 V2000
   10.2734    2.6816   23.7343 N   0  0  0  0  0  0  0  0  0  0  0  0
   11.0956    2.3660   22.9558 C   0  0  0  0  0  0  0  0  0  0  0  0
   11.9772    1.9169   21.6904 C   0  0  0  0  0  0  0  0  0  0  0  0
   13.5969    1.6899   21.6607 C   0  0  0  0  0  0  0  0  0  0  0  0
   13.9040    0.5598   22.4863 O   0  0  0  0  0  0  0  0  0  0  0  0
   14.5017    1.5565   20.2448 C   0  0  0  0  0  0  0  0  0  0  0  0
   14.7341    0.2776   19.5097 N   0  0  0  0  0  0  0  0  0  0  0  0
   15.7370   -0.6815   20.0355 C   0  0  0  0  0  0  0  0  0  0  0  0
   16.0776   -1.6233   18.8269 C   0  0  0  0  0  0  0  0  0  0  0  0
   15.0735   -1.1573   17.7873 C   0  0  0  0  0  0  0  0  0  0  0  0
   15.1500   -1.6194   16.3208 C   0  0  0  0  0  0  0  0  0  0  0  0
   13.7798   -1.8143   15.8392 N   0  0  0  0  0  0  0  0  0  0  0  0
   13.5242   -1.6616   14.4172 C   0  0  0  0  0  0  0  0  0  0  0  0
   12.1239   -2.2471   14.2509 C   0  0  0  0  0  0  0  0  0  0  0  0
   11.8272   -2.9869   15.5428 C   0  0  0  0  0  0  0  0  0  0  0  0
   13.1647   -3.0796   16.2438 C   0  0  0  0  0  0  0  0  0  0  0  0
   15.1184    0.3516   18.0761 C   0  0  0  0  0  0  0  0  0  0  0  0
   11.7353    2.6286   20.8921 H   0  0  0  0  0  0  0  0  0  0  0  0
   11.5180    0.9558   21.4580 H   0  0  0  0  0  0  0  0  0  0  0  0
   14.0136    2.5655   22.1741 H   0  0  0  0  0  0  0  0  0  0  0  0
   13.5625   -0.2440   22.0401 H   0  0  0  0  0  0  0  0  0  0  0  0
   15.4893    1.9688   20.4904 H   0  0  0  0  0  0  0  0  0  0  0  0
   14.0371    2.2749   19.5576 H   0  0  0  0  0  0  0  0  0  0  0  0
   16.6483   -0.1774   20.3766 H   0  0  0  0  0  0  0  0  0  0  0  0
   15.3173   -1.2596   20.8639 H   0  0  0  0  0  0  0  0  0  0  0  0
   17.1084   -1.4632   18.4919 H   0  0  0  0  0  0  0  0  0  0  0  0
   15.9443   -2.6776   19.0881 H   0  0  0  0  0  0  0  0  0  0  0  0
   14.1342   -1.5601   18.1767 H   0  0  0  0  0  0  0  0  0  0  0  0
   15.7333   -2.5421   16.2236 H   0  0  0  0  0  0  0  0  0  0  0  0
   15.6558   -0.8454   15.7320 H   0  0  0  0  0  0  0  0  0  0  0  0
   14.2522   -2.2073   13.8087 H   0  0  0  0  0  0  0  0  0  0  0  0
   13.5504   -0.6100   14.1142 H   0  0  0  0  0  0  0  0  0  0  0  0
   12.0836   -2.9310   13.4024 H   0  0  0  0  0  0  0  0  0  0  0  0
   11.3878   -1.4544   14.0884 H   0  0  0  0  0  0  0  0  0  0  0  0
   11.3570   -3.9557   15.3799 H   0  0  0  0  0  0  0  0  0  0  0  0
   11.1269   -2.3866   16.1265 H   0  0  0  0  0  0  0  0  0  0  0  0
   13.7457   -3.9401   15.9042 H   0  0  0  0  0  0  0  0  0  0  0  0
   13.0254   -3.1815   17.3223 H   0  0  0  0  0  0  0  0  0  0  0  0
   16.1268    0.7704   17.9518 H   0  0  0  0  0  0  0  0  0  0  0  0
   14.4684    0.9346   17.4366 H   0  0  0  0  0  0  0  0  0  0  0  0
  1  2  3  0
  2  3  1  0
  3  4  1  0
  4  5  1  0
  4  6  1  0
  6  7  1  0
  7  8  1  0
  8  9  1  0
  9 10  1  0
 10 11  1  0
 11 12  1  0
 12 13  1  0
 13 14  1  0
 14 15  1  0
 15 16  1  0
 10 17  1  0
 17  7  1  0
 16 12  1  0
  3 18  1  0
  3 19  1  0
  4 20  1  0
  5 21  1  0
  6 22  1  0
  6 23  1  0
  8 24  1  0
  8 25  1  0
  9 26  1  0
  9 27  1  0
 10 28  1  0
 11 29  1  0
 11 30  1  0
 13 31  1  0
 13 32  1  0
 14 33  1  0
 14 34  1  0
 15 35  1  0
 15 36  1  0
 16 37  1  0
 16 38  1  0
 17 39  1  0
 17 40  1  0
M  END
>  <Energy>  (919) 
93.31603072716112

>  <compound_id>  (919) 
14635

>  <target_id>  (919) 
1

>  <reference_id>  (919) 
124

>  <inspiration_ids>  (919) 
[53, 124]

>  <energy_score>  (919) 
15.022095781553048

>  <distance_score>  (919) 
3.3263252650688164

>  <path>  (919) 
/opt/xchem-fragalysis-2/maxwin/BulkDock/SCRATCH/511016/C14635-P124/C14635-P124.minimised.mol

>  <scratch_subdir>  (919) 
/opt/xchem-fragalysis-2/maxwin/BulkDock/SCRATCH/511016/C14635-P124

>  <fragmenstein_runtime>  (919) 
3.5324389934539795

>  <fragmenstein_outcome>  (919) 
too moved

>  <fragmenstein_mode>  (919) 
expansion

>  <fragmenstein_error>  (919) 


$$$$
C14638-P53
     RDKit          3D

 47 48  0  0  0  0  0  0  0  0999 V2000
   12.3203   -2.5466   14.1632 C   0  0  0  0  0  0  0  0  0  0  0  0
   13.6938   -2.1248   14.6872 C   0  0  0  0  0  0  0  0  0  0  0  0
   14.7862   -2.4604   13.6801 C   0  0  0  0  0  0  0  0  0  0  0  0
   14.0019   -2.9086   16.2875 S   0  0  0  0  0  0  0  0  0  0  0  0
   14.1703   -4.3277   16.0455 O   0  0  0  0  0  0  0  0  0  0  0  0
   12.9757   -2.4306   17.1892 O   0  0  0  0  0  0  0  0  0  0  0  0
   15.5671   -2.2943   16.8634 C   0  0  0  0  0  0  0  0  0  0  0  0
   15.7900   -0.8438   16.6777 C   0  0  0  0  0  0  0  0  0  0  0  0
   16.4711   -0.5798   17.9869 C   0  0  0  0  0  0  0  0  0  0  0  0
   15.7034   -1.0642   19.1614 N   0  0  0  0  0  0  0  0  0  0  0  0
   16.1067   -1.2673   20.5254 C   0  0  0  0  0  0  0  0  0  0  0  0
   17.1932   -1.1809   21.0413 O   0  0  0  0  0  0  0  0  0  0  0  0
   14.8911   -1.5689   21.4369 C   0  0  0  0  0  0  0  0  0  0  0  0
   14.0780   -0.4407   21.8408 N   0  0  0  0  0  0  0  0  0  0  0  0
   14.4436    0.8202   22.4693 C   0  0  0  0  0  0  0  0  0  0  0  0
   15.5000    1.2633   22.7313 O   0  0  0  0  0  0  0  0  0  0  0  0
   13.1052    1.4200   22.5923 N   0  0  0  0  0  0  0  0  0  0  0  0
   12.6931    2.8041   22.9801 C   0  0  0  0  0  0  0  0  0  0  0  0
   11.2180    2.8888   23.3162 C   0  0  0  0  0  0  0  0  0  0  0  0
   11.0815    1.6145   24.0728 C   0  0  0  0  0  0  0  0  0  0  0  0
   12.5095    1.1013   23.9497 C   0  0  0  0  0  0  0  0  0  0  0  0
   15.7789   -2.3926   18.3774 C   0  0  0  0  0  0  0  0  0  0  0  0
   11.5277   -2.2519   14.8592 H   0  0  0  0  0  0  0  0  0  0  0  0
   12.1096   -2.0757   13.1975 H   0  0  0  0  0  0  0  0  0  0  0  0
   12.2576   -3.6317   14.0353 H   0  0  0  0  0  0  0  0  0  0  0  0
   13.6709   -1.0444   14.8595 H   0  0  0  0  0  0  0  0  0  0  0  0
   15.7584   -2.0780   14.0031 H   0  0  0  0  0  0  0  0  0  0  0  0
   14.8906   -3.5409   13.5501 H   0  0  0  0  0  0  0  0  0  0  0  0
   14.5657   -2.0184   12.7029 H   0  0  0  0  0  0  0  0  0  0  0  0
   16.3318   -2.8865   16.3463 H   0  0  0  0  0  0  0  0  0  0  0  0
   14.8657   -0.2748   16.5918 H   0  0  0  0  0  0  0  0  0  0  0  0
   16.4285   -0.6051   15.8231 H   0  0  0  0  0  0  0  0  0  0  0  0
   17.5213   -0.9177   18.0288 H   0  0  0  0  0  0  0  0  0  0  0  0
   16.5448    0.5066   18.1309 H   0  0  0  0  0  0  0  0  0  0  0  0
   15.2649   -2.0433   22.3509 H   0  0  0  0  0  0  0  0  0  0  0  0
   14.2342   -2.2892   20.9406 H   0  0  0  0  0  0  0  0  0  0  0  0
   13.0660   -0.5338   21.8456 H   0  0  0  0  0  0  0  0  0  0  0  0
   13.3610    3.2305   23.7478 H   0  0  0  0  0  0  0  0  0  0  0  0
   12.8909    3.4208   22.0932 H   0  0  0  0  0  0  0  0  0  0  0  0
   10.5996    2.8782   22.4124 H   0  0  0  0  0  0  0  0  0  0  0  0
   10.9739    3.7789   23.9019 H   0  0  0  0  0  0  0  0  0  0  0  0
   10.3688    0.9433   23.5848 H   0  0  0  0  0  0  0  0  0  0  0  0
   10.7810    1.7497   25.1153 H   0  0  0  0  0  0  0  0  0  0  0  0
   12.5029    0.0088   24.0585 H   0  0  0  0  0  0  0  0  0  0  0  0
   13.1701    1.4361   24.7691 H   0  0  0  0  0  0  0  0  0  0  0  0
   15.0338   -3.0557   18.8362 H   0  0  0  0  0  0  0  0  0  0  0  0
   16.7440   -2.8781   18.6066 H   0  0  0  0  0  0  0  0  0  0  0  0
  1  2  1  0
  2  3  1  0
  2  4  1  0
  4  5  2  0
  4  6  2  0
  4  7  1  0
  7  8  1  0
  8  9  1  0
  9 10  1  0
 10 11  1  0
 11 12  2  0
 11 13  1  0
 13 14  1  0
 14 15  1  0
 15 16  2  0
 15 17  1  0
 17 18  1  0
 18 19  1  0
 19 20  1  0
 20 21  1  0
 10 22  1  0
 22  7  1  0
 21 17  1  0
  1 23  1  0
  1 24  1  0
  1 25  1  0
  2 26  1  0
  3 27  1  0
  3 28  1  0
  3 29  1  0
  7 30  1  0
  8 31  1  0
  8 32  1  0
  9 33  1  0
  9 34  1  0
 13 35  1  0
 13 36  1  0
 14 37  1  0
 18 38  1  0
 18 39  1  0
 19 40  1  0
 19 41  1  0
 20 42  1  0
 20 43  1  0
 21 44  1  0
 21 45  1  0
 22 46  1  0
 22 47  1  0
M  END
>  <Energy>  (920) 
69.594491651500846

>  <compound_id>  (920) 
14638

>  <target_id>  (920) 
1

>  <reference_id>  (920) 
53

>  <inspiration_ids>  (920) 
[53, 124]

>  <energy_score>  (920) 
94.06917624222845

>  <distance_score>  (920) 
6.4855014302957

>  <path>  (920) 
/opt/xchem-fragalysis-2/maxwin/BulkDock/SCRATCH/511016/C14638-P53/C14638-P53.minimised.mol

>  <scratch_subdir>  (920) 
/opt/xchem-fragalysis-2/maxwin/BulkDock/SCRATCH/511016/C14638-P53

>  <fragmenstein_runtime>  (920) 
9.474307537078857

>  <fragmenstein_outcome>  (920) 
too moved

>  <fragmenstein_mode>  (920) 
expansion

>  <fragmenstein_error>  (920) 


$$$$
C14638-P124
     RDKit          3D

 47 48  0  0  0  0  0  0  0  0999 V2000
   12.4139   -2.1161   14.9649 C   0  0  0  0  0  0  0  0  0  0  0  0
   13.7211   -1.3384   14.8274 C   0  0  0  0  0  0  0  0  0  0  0  0
   14.0740   -1.1517   13.3539 C   0  0  0  0  0  0  0  0  0  0  0  0
   15.0935   -2.1237   15.7291 S   0  0  0  0  0  0  0  0  0  0  0  0
   16.3125   -1.9344   14.9675 O   0  0  0  0  0  0  0  0  0  0  0  0
   14.6938   -3.4572   16.1364 O   0  0  0  0  0  0  0  0  0  0  0  0
   15.3027   -1.1975   17.2276 C   0  0  0  0  0  0  0  0  0  0  0  0
   16.5158   -1.5999   18.0037 C   0  0  0  0  0  0  0  0  0  0  0  0
   17.2447   -0.2705   18.0286 C   0  0  0  0  0  0  0  0  0  0  0  0
   16.3122    0.8901   18.2243 N   0  0  0  0  0  0  0  0  0  0  0  0
   15.3409    1.1512   19.2529 C   0  0  0  0  0  0  0  0  0  0  0  0
   14.9679    0.4636   20.1676 O   0  0  0  0  0  0  0  0  0  0  0  0
   14.8323    2.6079   19.1018 C   0  0  0  0  0  0  0  0  0  0  0  0
   13.9359    3.0169   20.1660 N   0  0  0  0  0  0  0  0  0  0  0  0
   12.5391    3.4192   20.1313 C   0  0  0  0  0  0  0  0  0  0  0  0
   11.7721    3.4367   19.2403 O   0  0  0  0  0  0  0  0  0  0  0  0
   12.3961    3.8886   21.5134 N   0  0  0  0  0  0  0  0  0  0  0  0
   11.2758    4.6311   22.1803 C   0  0  0  0  0  0  0  0  0  0  0  0
    9.9322    3.9409   22.0990 C   0  0  0  0  0  0  0  0  0  0  0  0
   10.3812    2.5419   22.3054 C   0  0  0  0  0  0  0  0  0  0  0  0
   11.8835    2.7655   22.4006 C   0  0  0  0  0  0  0  0  0  0  0  0
   15.6429    0.2645   17.0097 C   0  0  0  0  0  0  0  0  0  0  0  0
   12.1902   -2.3566   16.0078 H   0  0  0  0  0  0  0  0  0  0  0  0
   11.5784   -1.5347   14.5619 H   0  0  0  0  0  0  0  0  0  0  0  0
   12.4412   -3.0584   14.4145 H   0  0  0  0  0  0  0  0  0  0  0  0
   13.5968   -0.3443   15.2610 H   0  0  0  0  0  0  0  0  0  0  0  0
   14.9664   -0.5276   13.2385 H   0  0  0  0  0  0  0  0  0  0  0  0
   14.2696   -2.1095   12.8614 H   0  0  0  0  0  0  0  0  0  0  0  0
   13.2579   -0.6523   12.8241 H   0  0  0  0  0  0  0  0  0  0  0  0
   14.4127   -1.3440   17.8413 H   0  0  0  0  0  0  0  0  0  0  0  0
   17.1261   -2.3928   17.5625 H   0  0  0  0  0  0  0  0  0  0  0  0
   16.2386   -1.9078   19.0186 H   0  0  0  0  0  0  0  0  0  0  0  0
   17.9029   -0.2625   18.9074 H   0  0  0  0  0  0  0  0  0  0  0  0
   17.9142   -0.1068   17.1687 H   0  0  0  0  0  0  0  0  0  0  0  0
   15.6920    3.2847   19.1304 H   0  0  0  0  0  0  0  0  0  0  0  0
   14.3129    2.7243   18.1477 H   0  0  0  0  0  0  0  0  0  0  0  0
   14.3133    3.2097   21.0846 H   0  0  0  0  0  0  0  0  0  0  0  0
   11.1985    5.5806   21.6341 H   0  0  0  0  0  0  0  0  0  0  0  0
   11.5604    4.9182   23.2059 H   0  0  0  0  0  0  0  0  0  0  0  0
    9.4731    4.0662   21.1126 H   0  0  0  0  0  0  0  0  0  0  0  0
    9.2324    4.2977   22.8595 H   0  0  0  0  0  0  0  0  0  0  0  0
   10.1169    1.9088   21.4526 H   0  0  0  0  0  0  0  0  0  0  0  0
    9.9856    2.0873   23.2172 H   0  0  0  0  0  0  0  0  0  0  0  0
   12.3887    1.8390   22.0939 H   0  0  0  0  0  0  0  0  0  0  0  0
   12.2214    2.9322   23.4372 H   0  0  0  0  0  0  0  0  0  0  0  0
   16.2385    0.4700   16.1040 H   0  0  0  0  0  0  0  0  0  0  0  0
   14.7178    0.8231   16.8342 H   0  0  0  0  0  0  0  0  0  0  0  0
  1  2  1  0
  2  3  1  0
  2  4  1  0
  4  5  2  0
  4  6  2  0
  4  7  1  0
  7  8  1  0
  8  9  1  0
  9 10  1  0
 10 11  1  0
 11 12  2  0
 11 13  1  0
 13 14  1  0
 14 15  1  0
 15 16  2  0
 15 17  1  0
 17 18  1  0
 18 19  1  0
 19 20  1  0
 20 21  1  0
 10 22  1  0
 22  7  1  0
 21 17  1  0
  1 23  1  0
  1 24  1  0
  1 25  1  0
  2 26  1  0
  3 27  1  0
  3 28  1  0
  3 29  1  0
  7 30  1  0
  8 31  1  0
  8 32  1  0
  9 33  1  0
  9 34  1  0
 13 35  1  0
 13 36  1  0
 14 37  1  0
 18 38  1  0
 18 39  1  0
 19 40  1  0
 19 41  1  0
 20 42  1  0
 20 43  1  0
 21 44  1  0
 21 45  1  0
 22 46  1  0
 22 47  1  0
M  END
>  <Energy>  (921) 
61.226151954208547

>  <compound_id>  (921) 
14638

>  <target_id>  (921) 
1

>  <reference_id>  (921) 
124

>  <inspiration_ids>  (921) 
[53, 124]

>  <energy_score>  (921) 
85.70083654493374

>  <distance_score>  (921) 
6.162819850956157

>  <path>  (921) 
/opt/xchem-fragalysis-2/maxwin/BulkDock/SCRATCH/511016/C14638-P124/C14638-P124.minimised.mol

>  <scratch_subdir>  (921) 
/opt/xchem-fragalysis-2/maxwin/BulkDock/SCRATCH/511016/C14638-P124

>  <fragmenstein_runtime>  (921) 
13.257632970809937

>  <fragmenstein_outcome>  (921) 
too moved

>  <fragmenstein_mode>  (921) 
expansion

>  <fragmenstein_error>  (921) 


$$$$
C14639-P53
     RDKit          3D

 53 54  0  0  0  0  0  0  0  0999 V2000
   11.8558    3.7307   24.5270 C   0  0  0  0  0  0  0  0  0  0  0  0
   11.3788    2.5054   25.3328 C   0  0  0  0  0  0  0  0  0  0  0  0
   11.7648    1.2206   24.5237 C   0  0  0  0  0  0  0  0  0  0  0  0
   13.1912    1.1552   24.2765 O   0  0  0  0  0  0  0  0  0  0  0  0
   13.5173    0.1560   23.3042 C   0  0  0  0  0  0  0  0  0  0  0  0
   15.0250   -0.1448   23.0031 C   0  0  0  0  0  0  0  0  0  0  0  0
   15.8210   -0.1891   23.9067 O   0  0  0  0  0  0  0  0  0  0  0  0
   15.2193   -0.2659   21.5724 N   0  0  0  0  0  0  0  0  0  0  0  0
   16.4734   -0.3728   20.7638 C   0  0  0  0  0  0  0  0  0  0  0  0
   16.1955   -0.8141   19.3417 C   0  0  0  0  0  0  0  0  0  0  0  0
   15.1225   -1.8122   19.6118 C   0  0  0  0  0  0  0  0  0  0  0  0
   15.3381   -3.4348   18.9485 S   0  0  0  0  0  0  0  0  0  0  0  0
   14.4320   -4.2919   19.6879 O   0  0  0  0  0  0  0  0  0  0  0  0
   16.7608   -3.7166   18.9516 O   0  0  0  0  0  0  0  0  0  0  0  0
   14.8082   -3.3957   17.2095 C   0  0  0  0  0  0  0  0  0  0  0  0
   13.2968   -3.3253   17.0410 C   0  0  0  0  0  0  0  0  0  0  0  0
   15.5014   -2.2903   16.4238 C   0  0  0  0  0  0  0  0  0  0  0  0
   15.0858   -1.7324   21.1352 C   0  0  0  0  0  0  0  0  0  0  0  0
    9.9161    2.6152   25.6466 N   0  0  0  0  0  0  0  0  0  0  0  0
    9.4378    1.5799   26.5736 C   0  0  0  0  0  0  0  0  0  0  0  0
    8.0864    2.1029   27.0529 C   0  0  0  0  0  0  0  0  0  0  0  0
    8.1860    3.6154   26.9403 C   0  0  0  0  0  0  0  0  0  0  0  0
    9.5523    3.8759   26.3180 C   0  0  0  0  0  0  0  0  0  0  0  0
   11.2842    3.8393   23.5985 H   0  0  0  0  0  0  0  0  0  0  0  0
   12.9146    3.6451   24.2605 H   0  0  0  0  0  0  0  0  0  0  0  0
   11.7592    4.6579   25.1008 H   0  0  0  0  0  0  0  0  0  0  0  0
   11.9549    2.4967   26.2683 H   0  0  0  0  0  0  0  0  0  0  0  0
   11.4823    0.3211   25.0813 H   0  0  0  0  0  0  0  0  0  0  0  0
   11.2275    1.2234   23.5669 H   0  0  0  0  0  0  0  0  0  0  0  0
   13.1040   -0.7991   23.6451 H   0  0  0  0  0  0  0  0  0  0  0  0
   13.0528    0.4641   22.3638 H   0  0  0  0  0  0  0  0  0  0  0  0
   16.8902    0.6429   20.7459 H   0  0  0  0  0  0  0  0  0  0  0  0
   17.2479   -0.9623   21.2827 H   0  0  0  0  0  0  0  0  0  0  0  0
   15.8078    0.0215   18.7484 H   0  0  0  0  0  0  0  0  0  0  0  0
   17.0971   -1.1919   18.8541 H   0  0  0  0  0  0  0  0  0  0  0  0
   14.1714   -1.4740   19.2330 H   0  0  0  0  0  0  0  0  0  0  0  0
   15.1459   -4.3609   16.8104 H   0  0  0  0  0  0  0  0  0  0  0  0
   12.8987   -2.3833   17.4183 H   0  0  0  0  0  0  0  0  0  0  0  0
   12.8036   -4.1413   17.5767 H   0  0  0  0  0  0  0  0  0  0  0  0
   13.0197   -3.4070   15.9845 H   0  0  0  0  0  0  0  0  0  0  0  0
   15.1606   -1.2990   16.7366 H   0  0  0  0  0  0  0  0  0  0  0  0
   15.2878   -2.3887   15.3540 H   0  0  0  0  0  0  0  0  0  0  0  0
   16.5877   -2.3319   16.5512 H   0  0  0  0  0  0  0  0  0  0  0  0
   14.1019   -2.0702   21.4886 H   0  0  0  0  0  0  0  0  0  0  0  0
   15.7999   -2.3896   21.6610 H   0  0  0  0  0  0  0  0  0  0  0  0
    9.3337    0.6043   26.0898 H   0  0  0  0  0  0  0  0  0  0  0  0
   10.1139    1.4714   27.4313 H   0  0  0  0  0  0  0  0  0  0  0  0
    7.2746    1.7317   26.4183 H   0  0  0  0  0  0  0  0  0  0  0  0
    7.8756    1.7847   28.0790 H   0  0  0  0  0  0  0  0  0  0  0  0
    7.3798    4.0025   26.3074 H   0  0  0  0  0  0  0  0  0  0  0  0
    8.1007    4.0972   27.9199 H   0  0  0  0  0  0  0  0  0  0  0  0
   10.2703    4.1248   27.1101 H   0  0  0  0  0  0  0  0  0  0  0  0
    9.4981    4.7152   25.6175 H   0  0  0  0  0  0  0  0  0  0  0  0
  1  2  1  0
  2  3  1  0
  3  4  1  0
  4  5  1  0
  5  6  1  0
  6  7  2  0
  6  8  1  0
  8  9  1  0
  9 10  1  0
 10 11  1  0
 11 12  1  0
 12 13  2  0
 12 14  2  0
 12 15  1  0
 15 16  1  0
 15 17  1  0
 11 18  1  0
  2 19  1  0
 19 20  1  0
 20 21  1  0
 21 22  1  0
 22 23  1  0
 18  8  1  0
 23 19  1  0
  1 24  1  0
  1 25  1  0
  1 26  1  0
  2 27  1  0
  3 28  1  0
  3 29  1  0
  5 30  1  0
  5 31  1  0
  9 32  1  0
  9 33  1  0
 10 34  1  0
 10 35  1  0
 11 36  1  0
 15 37  1  0
 16 38  1  0
 16 39  1  0
 16 40  1  0
 17 41  1  0
 17 42  1  0
 17 43  1  0
 18 44  1  0
 18 45  1  0
 20 46  1  0
 20 47  1  0
 21 48  1  0
 21 49  1  0
 22 50  1  0
 22 51  1  0
 23 52  1  0
 23 53  1  0
M  END
>  <Energy>  (922) 
109.86260484958987

>  <compound_id>  (922) 
14639

>  <target_id>  (922) 
1

>  <reference_id>  (922) 
53

>  <inspiration_ids>  (922) 
[53, 124]

>  <energy_score>  (922) 
-20.784901988765853

>  <distance_score>  (922) 
5.281098681336994

>  <path>  (922) 
/opt/xchem-fragalysis-2/maxwin/BulkDock/SCRATCH/511016/C14639-P53/C14639-P53.minimised.mol

>  <scratch_subdir>  (922) 
/opt/xchem-fragalysis-2/maxwin/BulkDock/SCRATCH/511016/C14639-P53

>  <fragmenstein_runtime>  (922) 
10.008931159973145

>  <fragmenstein_outcome>  (922) 
too moved

>  <fragmenstein_mode>  (922) 
expansion

>  <fragmenstein_error>  (922) 


$$$$
C14639-P124
     RDKit          3D

 53 54  0  0  0  0  0  0  0  0999 V2000
   12.1266    5.0913   23.8814 C   0  0  0  0  0  0  0  0  0  0  0  0
   11.4058    3.8201   23.3934 C   0  0  0  0  0  0  0  0  0  0  0  0
   11.9563    3.3864   21.9859 C   0  0  0  0  0  0  0  0  0  0  0  0
   13.3882    3.5389   21.9217 O   0  0  0  0  0  0  0  0  0  0  0  0
   14.0341    2.8990   20.8152 C   0  0  0  0  0  0  0  0  0  0  0  0
   14.5550    1.4567   21.0977 C   0  0  0  0  0  0  0  0  0  0  0  0
   14.0224    0.8184   21.9691 O   0  0  0  0  0  0  0  0  0  0  0  0
   15.6525    1.1119   20.2172 N   0  0  0  0  0  0  0  0  0  0  0  0
   16.5378   -0.0980   20.1870 C   0  0  0  0  0  0  0  0  0  0  0  0
   17.2749   -0.2883   18.8813 C   0  0  0  0  0  0  0  0  0  0  0  0
   16.1981    0.1046   17.9244 C   0  0  0  0  0  0  0  0  0  0  0  0
   15.6727   -1.2155   16.8084 S   0  0  0  0  0  0  0  0  0  0  0  0
   14.5292   -1.8685   17.4158 O   0  0  0  0  0  0  0  0  0  0  0  0
   16.8440   -2.0143   16.4962 O   0  0  0  0  0  0  0  0  0  0  0  0
   15.1498   -0.4802   15.2297 C   0  0  0  0  0  0  0  0  0  0  0  0
   13.9957   -1.2730   14.6161 C   0  0  0  0  0  0  0  0  0  0  0  0
   14.8277    1.0029   15.2868 C   0  0  0  0  0  0  0  0  0  0  0  0
   15.1291    0.4827   18.9444 C   0  0  0  0  0  0  0  0  0  0  0  0
    9.9117    3.8952   23.4723 N   0  0  0  0  0  0  0  0  0  0  0  0
    9.3013    5.1101   22.9225 C   0  0  0  0  0  0  0  0  0  0  0  0
    7.9032    5.1104   23.5193 C   0  0  0  0  0  0  0  0  0  0  0  0
    8.1371    4.6192   24.9337 C   0  0  0  0  0  0  0  0  0  0  0  0
    9.3983    3.7596   24.8493 C   0  0  0  0  0  0  0  0  0  0  0  0
   12.0657    5.8975   23.1429 H   0  0  0  0  0  0  0  0  0  0  0  0
   13.1880    4.8875   24.0614 H   0  0  0  0  0  0  0  0  0  0  0  0
   11.7163    5.4591   24.8268 H   0  0  0  0  0  0  0  0  0  0  0  0
   11.7198    3.0142   24.0723 H   0  0  0  0  0  0  0  0  0  0  0  0
   11.6799    2.3432   21.7927 H   0  0  0  0  0  0  0  0  0  0  0  0
   11.5203    4.0143   21.2009 H   0  0  0  0  0  0  0  0  0  0  0  0
   14.9005    3.5194   20.5617 H   0  0  0  0  0  0  0  0  0  0  0  0
   13.3677    2.8755   19.9461 H   0  0  0  0  0  0  0  0  0  0  0  0
   17.2678    0.0620   20.9914 H   0  0  0  0  0  0  0  0  0  0  0  0
   15.9817   -0.9944   20.5114 H   0  0  0  0  0  0  0  0  0  0  0  0
   18.1184    0.4087   18.8169 H   0  0  0  0  0  0  0  0  0  0  0  0
   17.6626   -1.3051   18.7841 H   0  0  0  0  0  0  0  0  0  0  0  0
   16.5463    0.9519   17.3318 H   0  0  0  0  0  0  0  0  0  0  0  0
   16.0200   -0.5948   14.5703 H   0  0  0  0  0  0  0  0  0  0  0  0
   13.0756   -1.1719   15.1963 H   0  0  0  0  0  0  0  0  0  0  0  0
   14.2461   -2.3349   14.5713 H   0  0  0  0  0  0  0  0  0  0  0  0
   13.7880   -0.9323   13.5962 H   0  0  0  0  0  0  0  0  0  0  0  0
   14.1021    1.2352   16.0628 H   0  0  0  0  0  0  0  0  0  0  0  0
   14.4206    1.3501   14.3307 H   0  0  0  0  0  0  0  0  0  0  0  0
   15.7266    1.5962   15.4771 H   0  0  0  0  0  0  0  0  0  0  0  0
   14.5129    1.2616   18.4881 H   0  0  0  0  0  0  0  0  0  0  0  0
   14.4358   -0.3295   19.2036 H   0  0  0  0  0  0  0  0  0  0  0  0
    9.8133    6.0246   23.2402 H   0  0  0  0  0  0  0  0  0  0  0  0
    9.2703    5.0889   21.8291 H   0  0  0  0  0  0  0  0  0  0  0  0
    7.4405    6.1015   23.4974 H   0  0  0  0  0  0  0  0  0  0  0  0
    7.2531    4.4229   22.9710 H   0  0  0  0  0  0  0  0  0  0  0  0
    8.3196    5.4750   25.5947 H   0  0  0  0  0  0  0  0  0  0  0  0
    7.2762    4.0714   25.3263 H   0  0  0  0  0  0  0  0  0  0  0  0
    9.1655    2.7077   25.0455 H   0  0  0  0  0  0  0  0  0  0  0  0
   10.1108    4.0877   25.6142 H   0  0  0  0  0  0  0  0  0  0  0  0
  1  2  1  0
  2  3  1  0
  3  4  1  0
  4  5  1  0
  5  6  1  0
  6  7  2  0
  6  8  1  0
  8  9  1  0
  9 10  1  0
 10 11  1  0
 11 12  1  0
 12 13  2  0
 12 14  2  0
 12 15  1  0
 15 16  1  0
 15 17  1  0
 11 18  1  0
  2 19  1  0
 19 20  1  0
 20 21  1  0
 21 22  1  0
 22 23  1  0
 18  8  1  0
 23 19  1  0
  1 24  1  0
  1 25  1  0
  1 26  1  0
  2 27  1  0
  3 28  1  0
  3 29  1  0
  5 30  1  0
  5 31  1  0
  9 32  1  0
  9 33  1  0
 10 34  1  0
 10 35  1  0
 11 36  1  0
 15 37  1  0
 16 38  1  0
 16 39  1  0
 16 40  1  0
 17 41  1  0
 17 42  1  0
 17 43  1  0
 18 44  1  0
 18 45  1  0
 20 46  1  0
 20 47  1  0
 21 48  1  0
 21 49  1  0
 22 50  1  0
 22 51  1  0
 23 52  1  0
 23 53  1  0
M  END
>  <Energy>  (923) 
117.96012180222866

>  <compound_id>  (923) 
14639

>  <target_id>  (923) 
1

>  <reference_id>  (923) 
124

>  <inspiration_ids>  (923) 
[53, 124]

>  <energy_score>  (923) 
-12.68738503612883

>  <distance_score>  (923) 
4.894853866619951

>  <path>  (923) 
/opt/xchem-fragalysis-2/maxwin/BulkDock/SCRATCH/511016/C14639-P124/C14639-P124.minimised.mol

>  <scratch_subdir>  (923) 
/opt/xchem-fragalysis-2/maxwin/BulkDock/SCRATCH/511016/C14639-P124

>  <fragmenstein_runtime>  (923) 
11.154659032821655

>  <fragmenstein_outcome>  (923) 
too moved

>  <fragmenstein_mode>  (923) 
expansion

>  <fragmenstein_error>  (923) 


$$$$
C14640-P53
     RDKit          3D

 47 48  0  0  0  0  0  0  0  0999 V2000
   13.0078   -4.3701   15.5406 C   0  0  0  0  0  0  0  0  0  0  0  0
   13.4523   -2.9191   15.5911 C   0  0  0  0  0  0  0  0  0  0  0  0
   13.3186   -2.2690   14.2149 C   0  0  0  0  0  0  0  0  0  0  0  0
   15.1574   -2.7466   16.1855 S   0  0  0  0  0  0  0  0  0  0  0  0
   16.0251   -3.4467   15.2561 O   0  0  0  0  0  0  0  0  0  0  0  0
   15.3657   -1.3357   16.4439 O   0  0  0  0  0  0  0  0  0  0  0  0
   15.2648   -3.6165   17.7194 C   0  0  0  0  0  0  0  0  0  0  0  0
   16.0831   -3.1039   18.7612 C   0  0  0  0  0  0  0  0  0  0  0  0
   14.5745   -3.2477   19.5422 C   0  0  0  0  0  0  0  0  0  0  0  0
   14.5836   -2.4000   20.5591 N   0  0  0  0  0  0  0  0  0  0  0  0
   14.7698   -0.7648   20.7358 C   0  0  0  0  0  0  0  0  0  0  0  0
   14.8399    0.0806   19.9859 O   0  0  0  0  0  0  0  0  0  0  0  0
   14.7202   -0.7352   22.1804 N   0  0  0  0  0  0  0  0  0  0  0  0
   14.6482    0.3865   23.1024 C   0  0  0  0  0  0  0  0  0  0  0  0
   13.2084    0.9673   23.2462 C   0  0  0  0  0  0  0  0  0  0  0  0
   12.7090    1.5716   22.3315 O   0  0  0  0  0  0  0  0  0  0  0  0
   12.6586    0.5710   24.5120 N   0  0  0  0  0  0  0  0  0  0  0  0
   11.2637    0.6834   25.0529 C   0  0  0  0  0  0  0  0  0  0  0  0
   10.7103    2.0934   25.0452 C   0  0  0  0  0  0  0  0  0  0  0  0
   11.9470    2.8193   25.4357 C   0  0  0  0  0  0  0  0  0  0  0  0
   12.9077    1.6414   25.5510 C   0  0  0  0  0  0  0  0  0  0  0  0
   14.2276   -3.2108   18.8283 C   0  0  0  0  0  0  0  0  0  0  0  0
   12.9603   -4.7976   16.5440 H   0  0  0  0  0  0  0  0  0  0  0  0
   13.7027   -4.9797   14.9562 H   0  0  0  0  0  0  0  0  0  0  0  0
   12.0128   -4.4605   15.0950 H   0  0  0  0  0  0  0  0  0  0  0  0
   12.8179   -2.3693   16.2939 H   0  0  0  0  0  0  0  0  0  0  0  0
   12.2833   -2.3158   13.8606 H   0  0  0  0  0  0  0  0  0  0  0  0
   13.6133   -1.2150   14.2493 H   0  0  0  0  0  0  0  0  0  0  0  0
   13.9532   -2.7668   13.4740 H   0  0  0  0  0  0  0  0  0  0  0  0
   15.3147   -4.6977   17.5646 H   0  0  0  0  0  0  0  0  0  0  0  0
   16.8614   -3.7816   19.1314 H   0  0  0  0  0  0  0  0  0  0  0  0
   16.4275   -2.0657   18.6990 H   0  0  0  0  0  0  0  0  0  0  0  0
   14.0412   -4.3611   20.0693 H   0  0  0  0  0  0  0  0  0  0  0  0
   15.3159   -3.8657   20.2752 H   0  0  0  0  0  0  0  0  0  0  0  0
   14.5748   -1.6732   22.5291 H   0  0  0  0  0  0  0  0  0  0  0  0
   15.2911    1.1884   22.7253 H   0  0  0  0  0  0  0  0  0  0  0  0
   15.0341    0.0487   24.0686 H   0  0  0  0  0  0  0  0  0  0  0  0
   11.1801    0.1800   26.0302 H   0  0  0  0  0  0  0  0  0  0  0  0
   10.6454    0.0829   24.3769 H   0  0  0  0  0  0  0  0  0  0  0  0
    9.8818    2.2187   25.7472 H   0  0  0  0  0  0  0  0  0  0  0  0
   10.3760    2.3911   24.0459 H   0  0  0  0  0  0  0  0  0  0  0  0
   11.8569    3.3669   26.3779 H   0  0  0  0  0  0  0  0  0  0  0  0
   12.2586    3.5192   24.6531 H   0  0  0  0  0  0  0  0  0  0  0  0
   13.9300    2.0167   25.4029 H   0  0  0  0  0  0  0  0  0  0  0  0
   12.9228    1.1967   26.5605 H   0  0  0  0  0  0  0  0  0  0  0  0
   13.1201   -3.7472   18.6522 H   0  0  0  0  0  0  0  0  0  0  0  0
   13.7776   -2.2075   18.3054 H   0  0  0  0  0  0  0  0  0  0  0  0
  1  2  1  0
  2  3  1  0
  2  4  1  0
  4  5  2  0
  4  6  2  0
  4  7  1  0
  7  8  1  0
  8  9  1  0
  9 10  1  0
 10 11  1  0
 11 12  2  0
 11 13  1  0
 13 14  1  0
 14 15  1  0
 15 16  2  0
 15 17  1  0
 17 18  1  0
 18 19  1  0
 19 20  1  0
 20 21  1  0
 10 22  1  0
 22  7  1  0
 21 17  1  0
  1 23  1  0
  1 24  1  0
  1 25  1  0
  2 26  1  0
  3 27  1  0
  3 28  1  0
  3 29  1  0
  7 30  1  0
  8 31  1  0
  8 32  1  0
  9 33  1  0
  9 34  1  0
 13 35  1  0
 14 36  1  0
 14 37  1  0
 18 38  1  0
 18 39  1  0
 19 40  1  0
 19 41  1  0
 20 42  1  0
 20 43  1  0
 21 44  1  0
 21 45  1  0
 22 46  1  0
 22 47  1  0
M  END
>  <Energy>  (924) 
745.02619090736846

>  <compound_id>  (924) 
14640

>  <target_id>  (924) 
1

>  <reference_id>  (924) 
53

>  <inspiration_ids>  (924) 
[53, 124]

>  <energy_score>  (924) 
764.0358429385448

>  <distance_score>  (924) 
6.955721994838668

>  <path>  (924) 
/opt/xchem-fragalysis-2/maxwin/BulkDock/SCRATCH/511016/C14640-P53/C14640-P53.minimised.mol

>  <scratch_subdir>  (924) 
/opt/xchem-fragalysis-2/maxwin/BulkDock/SCRATCH/511016/C14640-P53

>  <fragmenstein_runtime>  (924) 
11.578038454055786

>  <fragmenstein_outcome>  (924) 
too moved

>  <fragmenstein_mode>  (924) 
expansion

>  <fragmenstein_error>  (924) 


$$$$
C14640-P124
     RDKit          3D

 47 48  0  0  0  0  0  0  0  0999 V2000
   13.7651   -2.5271   15.6965 C   0  0  0  0  0  0  0  0  0  0  0  0
   14.3771   -1.3243   14.9834 C   0  0  0  0  0  0  0  0  0  0  0  0
   14.6151   -1.6182   13.5052 C   0  0  0  0  0  0  0  0  0  0  0  0
   15.9321   -0.8129   15.7636 S   0  0  0  0  0  0  0  0  0  0  0  0
   16.7207   -1.9869   16.0824 O   0  0  0  0  0  0  0  0  0  0  0  0
   16.5111    0.2591   14.9769 O   0  0  0  0  0  0  0  0  0  0  0  0
   15.4109   -0.0800   17.2573 C   0  0  0  0  0  0  0  0  0  0  0  0
   15.2403   -0.8982   18.4142 C   0  0  0  0  0  0  0  0  0  0  0  0
   16.3650    0.2077   18.9767 C   0  0  0  0  0  0  0  0  0  0  0  0
   15.8116    1.0382   19.8722 N   0  0  0  0  0  0  0  0  0  0  0  0
   14.6546    2.2323   19.8511 C   0  0  0  0  0  0  0  0  0  0  0  0
   14.0854    2.7295   19.0126 O   0  0  0  0  0  0  0  0  0  0  0  0
   14.5550    2.4022   21.2777 N   0  0  0  0  0  0  0  0  0  0  0  0
   13.7666    3.3255   22.0636 C   0  0  0  0  0  0  0  0  0  0  0  0
   12.3433    2.8250   22.4443 C   0  0  0  0  0  0  0  0  0  0  0  0
   11.7130    2.0957   21.7224 O   0  0  0  0  0  0  0  0  0  0  0  0
   12.0142    3.3780   23.7341 N   0  0  0  0  0  0  0  0  0  0  0  0
   10.8361    3.1344   24.6339 C   0  0  0  0  0  0  0  0  0  0  0  0
    9.4950    3.4206   23.9895 C   0  0  0  0  0  0  0  0  0  0  0  0
    9.8620    4.6183   23.1941 C   0  0  0  0  0  0  0  0  0  0  0  0
   11.3282    4.7206   23.5723 C   0  0  0  0  0  0  0  0  0  0  0  0
   16.5735    0.3624   18.2356 C   0  0  0  0  0  0  0  0  0  0  0  0
   13.5681   -2.3247   16.7500 H   0  0  0  0  0  0  0  0  0  0  0  0
   14.4449   -3.3840   15.6812 H   0  0  0  0  0  0  0  0  0  0  0  0
   12.8179   -2.8181   15.2313 H   0  0  0  0  0  0  0  0  0  0  0  0
   13.7024   -0.4646   15.0593 H   0  0  0  0  0  0  0  0  0  0  0  0
   13.6911   -1.9453   13.0181 H   0  0  0  0  0  0  0  0  0  0  0  0
   14.9664   -0.7236   12.9803 H   0  0  0  0  0  0  0  0  0  0  0  0
   15.3743   -2.3953   13.3698 H   0  0  0  0  0  0  0  0  0  0  0  0
   14.7010    0.7282   17.0832 H   0  0  0  0  0  0  0  0  0  0  0  0
   15.6310   -1.9218   18.3558 H   0  0  0  0  0  0  0  0  0  0  0  0
   14.2877   -0.8307   18.9380 H   0  0  0  0  0  0  0  0  0  0  0  0
   17.4955   -0.0436   19.6278 H   0  0  0  0  0  0  0  0  0  0  0  0
   16.2558   -0.6135   19.8640 H   0  0  0  0  0  0  0  0  0  0  0  0
   15.1606    1.7343   21.7372 H   0  0  0  0  0  0  0  0  0  0  0  0
   13.6443    4.2427   21.4783 H   0  0  0  0  0  0  0  0  0  0  0  0
   14.3435    3.5485   22.9666 H   0  0  0  0  0  0  0  0  0  0  0  0
   10.9768    3.6449   25.6007 H   0  0  0  0  0  0  0  0  0  0  0  0
   10.8732    2.0631   24.8721 H   0  0  0  0  0  0  0  0  0  0  0  0
    8.7099    3.6020   24.7279 H   0  0  0  0  0  0  0  0  0  0  0  0
    9.1858    2.6011   23.3346 H   0  0  0  0  0  0  0  0  0  0  0  0
    9.3026    5.5173   23.4671 H   0  0  0  0  0  0  0  0  0  0  0  0
    9.7315    4.4369   22.1220 H   0  0  0  0  0  0  0  0  0  0  0  0
   11.8497    5.2676   22.7750 H   0  0  0  0  0  0  0  0  0  0  0  0
   11.4936    5.3353   24.4735 H   0  0  0  0  0  0  0  0  0  0  0  0
   17.7481    0.0143   17.9120 H   0  0  0  0  0  0  0  0  0  0  0  0
   16.7717    1.4472   17.7054 H   0  0  0  0  0  0  0  0  0  0  0  0
  1  2  1  0
  2  3  1  0
  2  4  1  0
  4  5  2  0
  4  6  2  0
  4  7  1  0
  7  8  1  0
  8  9  1  0
  9 10  1  0
 10 11  1  0
 11 12  2  0
 11 13  1  0
 13 14  1  0
 14 15  1  0
 15 16  2  0
 15 17  1  0
 17 18  1  0
 18 19  1  0
 19 20  1  0
 20 21  1  0
 10 22  1  0
 22  7  1  0
 21 17  1  0
  1 23  1  0
  1 24  1  0
  1 25  1  0
  2 26  1  0
  3 27  1  0
  3 28  1  0
  3 29  1  0
  7 30  1  0
  8 31  1  0
  8 32  1  0
  9 33  1  0
  9 34  1  0
 13 35  1  0
 14 36  1  0
 14 37  1  0
 18 38  1  0
 18 39  1  0
 19 40  1  0
 19 41  1  0
 20 42  1  0
 20 43  1  0
 21 44  1  0
 21 45  1  0
 22 46  1  0
 22 47  1  0
M  END
>  <Energy>  (925) 
712.39799031126199

>  <compound_id>  (925) 
14640

>  <target_id>  (925) 
1

>  <reference_id>  (925) 
124

>  <inspiration_ids>  (925) 
[53, 124]

>  <energy_score>  (925) 
731.4076423424527

>  <distance_score>  (925) 
6.7358939162164075

>  <path>  (925) 
/opt/xchem-fragalysis-2/maxwin/BulkDock/SCRATCH/511016/C14640-P124/C14640-P124.minimised.mol

>  <scratch_subdir>  (925) 
/opt/xchem-fragalysis-2/maxwin/BulkDock/SCRATCH/511016/C14640-P124

>  <fragmenstein_runtime>  (925) 
13.631154775619507

>  <fragmenstein_outcome>  (925) 
too moved

>  <fragmenstein_mode>  (925) 
expansion

>  <fragmenstein_error>  (925) 


$$$$
C14641-P53
     RDKit          3D

 47 48  0  0  0  0  0  0  0  0999 V2000
   12.8163   -1.6559   14.5486 C   0  0  0  0  0  0  0  0  0  0  0  0
   13.9957   -1.0190   15.3051 C   0  0  0  0  0  0  0  0  0  0  0  0
   15.1847   -0.7794   14.3852 C   0  0  0  0  0  0  0  0  0  0  0  0
   14.4580   -2.0479   16.7155 S   0  0  0  0  0  0  0  0  0  0  0  0
   15.0827   -3.2271   16.1403 O   0  0  0  0  0  0  0  0  0  0  0  0
   13.2468   -2.2623   17.4823 O   0  0  0  0  0  0  0  0  0  0  0  0
   15.7340   -1.2422   17.7892 C   0  0  0  0  0  0  0  0  0  0  0  0
   15.7143   -1.8913   19.1751 C   0  0  0  0  0  0  0  0  0  0  0  0
   15.3069   -0.7936   20.1892 C   0  0  0  0  0  0  0  0  0  0  0  0
   14.9700    0.4200   19.4320 N   0  0  0  0  0  0  0  0  0  0  0  0
   14.9474    1.7145   20.2503 C   0  0  0  0  0  0  0  0  0  0  0  0
   13.5621    2.0592   21.1000 C   0  0  0  0  0  0  0  0  0  0  0  0
   13.2167    3.1980   22.2592 C   0  0  0  0  0  0  0  0  0  0  0  0
   11.8530    3.2013   23.0883 N   0  0  0  0  0  0  0  0  0  0  0  0
   11.9271    4.0117   24.3476 C   0  0  0  0  0  0  0  0  0  0  0  0
   10.6008    4.7573   24.5692 C   0  0  0  0  0  0  0  0  0  0  0  0
    9.6929    4.0443   23.6203 C   0  0  0  0  0  0  0  0  0  0  0  0
   10.6091    3.6860   22.4423 C   0  0  0  0  0  0  0  0  0  0  0  0
   15.7508    0.2614   18.1749 C   0  0  0  0  0  0  0  0  0  0  0  0
   13.0809   -2.6470   14.1646 H   0  0  0  0  0  0  0  0  0  0  0  0
   11.9457   -1.7724   15.2023 H   0  0  0  0  0  0  0  0  0  0  0  0
   12.5183   -1.0295   13.7014 H   0  0  0  0  0  0  0  0  0  0  0  0
   13.6579   -0.0692   15.7052 H   0  0  0  0  0  0  0  0  0  0  0  0
   14.9102   -0.1067   13.5661 H   0  0  0  0  0  0  0  0  0  0  0  0
   16.0168   -0.3226   14.9304 H   0  0  0  0  0  0  0  0  0  0  0  0
   15.5482   -1.7139   13.9452 H   0  0  0  0  0  0  0  0  0  0  0  0
   16.6754   -1.4762   17.2755 H   0  0  0  0  0  0  0  0  0  0  0  0
   16.7213   -2.2468   19.4264 H   0  0  0  0  0  0  0  0  0  0  0  0
   15.0447   -2.7536   19.2497 H   0  0  0  0  0  0  0  0  0  0  0  0
   14.4531   -1.1215   20.7907 H   0  0  0  0  0  0  0  0  0  0  0  0
   16.1490   -0.6118   20.8679 H   0  0  0  0  0  0  0  0  0  0  0  0
   15.0874    2.5516   19.5565 H   0  0  0  0  0  0  0  0  0  0  0  0
   15.7925    1.7244   20.9474 H   0  0  0  0  0  0  0  0  0  0  0  0
   12.8376    2.3369   20.3340 H   0  0  0  0  0  0  0  0  0  0  0  0
   13.3177    1.1237   21.6154 H   0  0  0  0  0  0  0  0  0  0  0  0
   13.3324    4.1909   21.8098 H   0  0  0  0  0  0  0  0  0  0  0  0
   14.0089    3.0762   23.0081 H   0  0  0  0  0  0  0  0  0  0  0  0
   12.7463    4.7391   24.3065 H   0  0  0  0  0  0  0  0  0  0  0  0
   12.1274    3.3304   25.1817 H   0  0  0  0  0  0  0  0  0  0  0  0
   10.7091    5.8086   24.2796 H   0  0  0  0  0  0  0  0  0  0  0  0
   10.2596    4.7089   25.6071 H   0  0  0  0  0  0  0  0  0  0  0  0
    9.4328    3.1136   24.1233 H   0  0  0  0  0  0  0  0  0  0  0  0
    8.8209    4.6354   23.3358 H   0  0  0  0  0  0  0  0  0  0  0  0
   10.8153    4.5786   21.8401 H   0  0  0  0  0  0  0  0  0  0  0  0
   10.1801    2.9126   21.7996 H   0  0  0  0  0  0  0  0  0  0  0  0
   15.4720    0.8855   17.3385 H   0  0  0  0  0  0  0  0  0  0  0  0
   16.7898    0.5366   18.4072 H   0  0  0  0  0  0  0  0  0  0  0  0
  1  2  1  0
  2  3  1  0
  2  4  1  0
  4  5  2  0
  4  6  2  0
  4  7  1  0
  7  8  1  0
  8  9  1  0
  9 10  1  0
 10 11  1  0
 11 12  1  0
 12 13  1  0
 13 14  1  0
 14 15  1  0
 15 16  1  0
 16 17  1  0
 17 18  1  0
 10 19  1  0
 19  7  1  0
 18 14  1  0
  1 20  1  0
  1 21  1  0
  1 22  1  0
  2 23  1  0
  3 24  1  0
  3 25  1  0
  3 26  1  0
  7 27  1  0
  8 28  1  0
  8 29  1  0
  9 30  1  0
  9 31  1  0
 11 32  1  0
 11 33  1  0
 12 34  1  0
 12 35  1  0
 13 36  1  0
 13 37  1  0
 15 38  1  0
 15 39  1  0
 16 40  1  0
 16 41  1  0
 17 42  1  0
 17 43  1  0
 18 44  1  0
 18 45  1  0
 19 46  1  0
 19 47  1  0
M  END
>  <Energy>  (926) 
70.448370946466738

>  <compound_id>  (926) 
14641

>  <target_id>  (926) 
1

>  <reference_id>  (926) 
53

>  <inspiration_ids>  (926) 
[53, 124]

>  <energy_score>  (926) 
17.474365130638432

>  <distance_score>  (926) 
5.557694831456669

>  <path>  (926) 
/opt/xchem-fragalysis-2/maxwin/BulkDock/SCRATCH/511016/C14641-P53/C14641-P53.minimised.mol

>  <scratch_subdir>  (926) 
/opt/xchem-fragalysis-2/maxwin/BulkDock/SCRATCH/511016/C14641-P53

>  <fragmenstein_runtime>  (926) 
10.748459815979004

>  <fragmenstein_outcome>  (926) 
too moved

>  <fragmenstein_mode>  (926) 
expansion

>  <fragmenstein_error>  (926) 


$$$$
C14641-P124
     RDKit          3D

 47 48  0  0  0  0  0  0  0  0999 V2000
   12.6639   -1.5742   14.4636 C   0  0  0  0  0  0  0  0  0  0  0  0
   13.8600   -0.7961   15.0305 C   0  0  0  0  0  0  0  0  0  0  0  0
   14.8675   -0.4636   13.9349 C   0  0  0  0  0  0  0  0  0  0  0  0
   14.6571   -1.7040   16.3921 S   0  0  0  0  0  0  0  0  0  0  0  0
   15.6383   -2.5820   15.7835 O   0  0  0  0  0  0  0  0  0  0  0  0
   13.6257   -2.3669   17.1674 O   0  0  0  0  0  0  0  0  0  0  0  0
   15.5777   -0.5233   17.4818 C   0  0  0  0  0  0  0  0  0  0  0  0
   15.7298   -1.1210   18.8870 C   0  0  0  0  0  0  0  0  0  0  0  0
   15.3658   -0.0049   19.8854 C   0  0  0  0  0  0  0  0  0  0  0  0
   14.5032    0.9298   19.1521 N   0  0  0  0  0  0  0  0  0  0  0  0
   14.1281    2.2268   19.9174 C   0  0  0  0  0  0  0  0  0  0  0  0
   12.6443    2.3058   20.7813 C   0  0  0  0  0  0  0  0  0  0  0  0
   12.0070    3.4425   21.8636 C   0  0  0  0  0  0  0  0  0  0  0  0
   10.5869    3.2328   22.6182 N   0  0  0  0  0  0  0  0  0  0  0  0
   10.5462    3.8221   23.9896 C   0  0  0  0  0  0  0  0  0  0  0  0
    9.0663    3.9798   24.3588 C   0  0  0  0  0  0  0  0  0  0  0  0
    8.4718    4.4786   23.0652 C   0  0  0  0  0  0  0  0  0  0  0  0
    9.3622    3.8153   21.9801 C   0  0  0  0  0  0  0  0  0  0  0  0
   15.0997    0.9318   17.7819 C   0  0  0  0  0  0  0  0  0  0  0  0
   12.9861   -2.5032   13.9903 H   0  0  0  0  0  0  0  0  0  0  0  0
   11.9401   -1.8331   15.2415 H   0  0  0  0  0  0  0  0  0  0  0  0
   12.1441   -0.9765   13.7080 H   0  0  0  0  0  0  0  0  0  0  0  0
   13.5011    0.1423   15.4480 H   0  0  0  0  0  0  0  0  0  0  0  0
   14.4060    0.1617   13.1634 H   0  0  0  0  0  0  0  0  0  0  0  0
   15.7239    0.0822   14.3445 H   0  0  0  0  0  0  0  0  0  0  0  0
   15.2479   -1.3684   13.4491 H   0  0  0  0  0  0  0  0  0  0  0  0
   16.5616   -0.4515   16.9997 H   0  0  0  0  0  0  0  0  0  0  0  0
   16.7574   -1.4620   19.0558 H   0  0  0  0  0  0  0  0  0  0  0  0
   15.0760   -1.9806   19.0603 H   0  0  0  0  0  0  0  0  0  0  0  0
   14.8585   -0.4152   20.7643 H   0  0  0  0  0  0  0  0  0  0  0  0
   16.2817    0.4986   20.2182 H   0  0  0  0  0  0  0  0  0  0  0  0
   14.0664    3.0353   19.1795 H   0  0  0  0  0  0  0  0  0  0  0  0
   14.9301    2.4798   20.6197 H   0  0  0  0  0  0  0  0  0  0  0  0
   11.8754    2.3157   20.0048 H   0  0  0  0  0  0  0  0  0  0  0  0
   12.6092    1.3845   21.3756 H   0  0  0  0  0  0  0  0  0  0  0  0
   12.7540    3.4975   22.6649 H   0  0  0  0  0  0  0  0  0  0  0  0
   11.9790    4.4180   21.3659 H   0  0  0  0  0  0  0  0  0  0  0  0
   11.0302    4.8071   23.9871 H   0  0  0  0  0  0  0  0  0  0  0  0
   11.0699    3.1774   24.7019 H   0  0  0  0  0  0  0  0  0  0  0  0
    8.9144    4.6754   25.1886 H   0  0  0  0  0  0  0  0  0  0  0  0
    8.6560    3.0060   24.6365 H   0  0  0  0  0  0  0  0  0  0  0  0
    8.5945    5.5672   23.0049 H   0  0  0  0  0  0  0  0  0  0  0  0
    7.4093    4.2628   22.9541 H   0  0  0  0  0  0  0  0  0  0  0  0
    8.8182    3.0060   21.4823 H   0  0  0  0  0  0  0  0  0  0  0  0
    9.6266    4.5581   21.2195 H   0  0  0  0  0  0  0  0  0  0  0  0
   14.4698    1.3457   16.9971 H   0  0  0  0  0  0  0  0  0  0  0  0
   15.9891    1.5765   17.8195 H   0  0  0  0  0  0  0  0  0  0  0  0
  1  2  1  0
  2  3  1  0
  2  4  1  0
  4  5  2  0
  4  6  2  0
  4  7  1  0
  7  8  1  0
  8  9  1  0
  9 10  1  0
 10 11  1  0
 11 12  1  0
 12 13  1  0
 13 14  1  0
 14 15  1  0
 15 16  1  0
 16 17  1  0
 17 18  1  0
 10 19  1  0
 19  7  1  0
 18 14  1  0
  1 20  1  0
  1 21  1  0
  1 22  1  0
  2 23  1  0
  3 24  1  0
  3 25  1  0
  3 26  1  0
  7 27  1  0
  8 28  1  0
  8 29  1  0
  9 30  1  0
  9 31  1  0
 11 32  1  0
 11 33  1  0
 12 34  1  0
 12 35  1  0
 13 36  1  0
 13 37  1  0
 15 38  1  0
 15 39  1  0
 16 40  1  0
 16 41  1  0
 17 42  1  0
 17 43  1  0
 18 44  1  0
 18 45  1  0
 19 46  1  0
 19 47  1  0
M  END
>  <Energy>  (927) 
81.934994487989215

>  <compound_id>  (927) 
14641

>  <target_id>  (927) 
1

>  <reference_id>  (927) 
124

>  <inspiration_ids>  (927) 
[53, 124]

>  <energy_score>  (927) 
28.960988672159218

>  <distance_score>  (927) 
5.147125381828285

>  <path>  (927) 
/opt/xchem-fragalysis-2/maxwin/BulkDock/SCRATCH/511016/C14641-P124/C14641-P124.minimised.mol

>  <scratch_subdir>  (927) 
/opt/xchem-fragalysis-2/maxwin/BulkDock/SCRATCH/511016/C14641-P124

>  <fragmenstein_runtime>  (927) 
11.029749393463135

>  <fragmenstein_outcome>  (927) 
too moved

>  <fragmenstein_mode>  (927) 
expansion

>  <fragmenstein_error>  (927) 


$$$$
C14642-P53
     RDKit          3D

 54 55  0  0  0  0  0  0  0  0999 V2000
   13.6841   -0.4605   12.5505 C   0  0  0  0  0  0  0  0  0  0  0  0
   12.4216   -0.5780   13.4066 C   0  0  0  0  0  0  0  0  0  0  0  0
   12.7896   -1.1637   14.7652 C   0  0  0  0  0  0  0  0  0  0  0  0
   11.6248    1.0615   13.5232 S   0  0  0  0  0  0  0  0  0  0  0  0
   12.5824    1.9113   14.2132 O   0  0  0  0  0  0  0  0  0  0  0  0
   11.1718    1.4439   12.1970 O   0  0  0  0  0  0  0  0  0  0  0  0
   10.2021    0.8700   14.5531 C   0  0  0  0  0  0  0  0  0  0  0  0
    8.8035    1.0174   14.0798 C   0  0  0  0  0  0  0  0  0  0  0  0
    8.0843    1.6273   15.3911 C   0  0  0  0  0  0  0  0  0  0  0  0
    8.9723    1.4453   16.5658 N   0  0  0  0  0  0  0  0  0  0  0  0
    8.7652    0.1180   17.1715 C   0  0  0  0  0  0  0  0  0  0  0  0
    9.3447   -0.8520   16.8920 O   0  0  0  0  0  0  0  0  0  0  0  0
    7.7263    0.3300   18.3162 N   0  0  0  0  0  0  0  0  0  0  0  0
    7.2007   -0.7281   19.5895 C   0  0  0  0  0  0  0  0  0  0  0  0
    5.9812   -2.1540   20.4580 C   0  0  0  0  0  0  0  0  0  0  0  0
    5.1491   -1.2239   22.0214 C   0  0  0  0  0  0  0  0  0  0  0  0
    4.7739   -1.8035   23.5506 C   0  0  0  0  0  0  0  0  0  0  0  0
    4.9674   -0.9815   24.7945 N   0  0  0  0  0  0  0  0  0  0  0  0
    4.0501    0.0819   25.1759 C   0  0  0  0  0  0  0  0  0  0  0  0
    4.6444    0.5823   26.4823 C   0  0  0  0  0  0  0  0  0  0  0  0
    5.2448   -0.6649   27.1126 C   0  0  0  0  0  0  0  0  0  0  0  0
    5.2176   -1.7333   26.0189 C   0  0  0  0  0  0  0  0  0  0  0  0
    9.9879    1.9360   15.5749 C   0  0  0  0  0  0  0  0  0  0  0  0
   14.4513    0.1371   13.0551 H   0  0  0  0  0  0  0  0  0  0  0  0
   13.4772    0.0243   11.5935 H   0  0  0  0  0  0  0  0  0  0  0  0
   14.1065   -1.4497   12.3450 H   0  0  0  0  0  0  0  0  0  0  0  0
   11.7052   -1.2328   12.9048 H   0  0  0  0  0  0  0  0  0  0  0  0
   13.4141   -0.4757   15.3427 H   0  0  0  0  0  0  0  0  0  0  0  0
   11.9067   -1.4014   15.3622 H   0  0  0  0  0  0  0  0  0  0  0  0
   13.3464   -2.0994   14.6427 H   0  0  0  0  0  0  0  0  0  0  0  0
   10.3278   -0.1098   15.0037 H   0  0  0  0  0  0  0  0  0  0  0  0
    8.4125    0.0303   13.8267 H   0  0  0  0  0  0  0  0  0  0  0  0
    8.6822    1.6909   13.2254 H   0  0  0  0  0  0  0  0  0  0  0  0
    7.7484    2.6674   15.2749 H   0  0  0  0  0  0  0  0  0  0  0  0
    7.2359    0.9808   15.5425 H   0  0  0  0  0  0  0  0  0  0  0  0
    7.3388    1.2645   18.2459 H   0  0  0  0  0  0  0  0  0  0  0  0
    8.0074   -0.4432   20.2144 H   0  0  0  0  0  0  0  0  0  0  0  0
    6.6182    0.0821   19.9308 H   0  0  0  0  0  0  0  0  0  0  0  0
    5.3755   -2.8170   19.8286 H   0  0  0  0  0  0  0  0  0  0  0  0
    6.6147   -2.9735   20.8643 H   0  0  0  0  0  0  0  0  0  0  0  0
    4.6451   -0.4305   21.5039 H   0  0  0  0  0  0  0  0  0  0  0  0
    5.4895   -0.3155   22.4304 H   0  0  0  0  0  0  0  0  0  0  0  0
    5.4982   -2.5924   23.7559 H   0  0  0  0  0  0  0  0  0  0  0  0
    3.7889   -2.2289   23.4929 H   0  0  0  0  0  0  0  0  0  0  0  0
    3.0635   -0.3191   25.3900 H   0  0  0  0  0  0  0  0  0  0  0  0
    3.9774    0.9148   24.4741 H   0  0  0  0  0  0  0  0  0  0  0  0
    5.4343    1.3186   26.2901 H   0  0  0  0  0  0  0  0  0  0  0  0
    3.8942    1.0505   27.1268 H   0  0  0  0  0  0  0  0  0  0  0  0
    4.6610   -0.9890   27.9810 H   0  0  0  0  0  0  0  0  0  0  0  0
    6.2678   -0.4644   27.4500 H   0  0  0  0  0  0  0  0  0  0  0  0
    6.1679   -2.2760   25.9838 H   0  0  0  0  0  0  0  0  0  0  0  0
    4.4139   -2.4531   26.2146 H   0  0  0  0  0  0  0  0  0  0  0  0
   10.9042    1.9846   16.1300 H   0  0  0  0  0  0  0  0  0  0  0  0
    9.8434    2.9753   15.2274 H   0  0  0  0  0  0  0  0  0  0  0  0
  1  2  1  0
  2  3  1  0
  2  4  1  0
  4  5  2  0
  4  6  2  0
  4  7  1  0
  7  8  1  0
  8  9  1  0
  9 10  1  0
 10 11  1  0
 11 12  2  0
 11 13  1  0
 13 14  1  0
 14 15  1  0
 15 16  1  0
 16 17  1  0
 17 18  1  0
 18 19  1  0
 19 20  1  0
 20 21  1  0
 21 22  1  0
 10 23  1  0
 23  7  1  0
 22 18  1  0
  1 24  1  0
  1 25  1  0
  1 26  1  0
  2 27  1  0
  3 28  1  0
  3 29  1  0
  3 30  1  0
  7 31  1  0
  8 32  1  0
  8 33  1  0
  9 34  1  0
  9 35  1  0
 13 36  1  0
 14 37  1  0
 14 38  1  0
 15 39  1  0
 15 40  1  0
 16 41  1  0
 16 42  1  0
 17 43  1  0
 17 44  1  0
 19 45  1  0
 19 46  1  0
 20 47  1  0
 20 48  1  0
 21 49  1  0
 21 50  1  0
 22 51  1  0
 22 52  1  0
 23 53  1  0
 23 54  1  0
M  END
>  <Energy>  (928) 
268.68329600894674

>  <compound_id>  (928) 
14642

>  <target_id>  (928) 
1

>  <reference_id>  (928) 
53

>  <inspiration_ids>  (928) 
[53, 124]

>  <energy_score>  (928) 
296.17984585528063

>  <distance_score>  (928) 
6.188502232055384

>  <path>  (928) 
/opt/xchem-fragalysis-2/maxwin/BulkDock/SCRATCH/511016/C14642-P53/C14642-P53.minimised.mol

>  <scratch_subdir>  (928) 
/opt/xchem-fragalysis-2/maxwin/BulkDock/SCRATCH/511016/C14642-P53

>  <fragmenstein_runtime>  (928) 
11.215696811676025

>  <fragmenstein_outcome>  (928) 
too moved

>  <fragmenstein_mode>  (928) 
expansion

>  <fragmenstein_error>  (928) 


$$$$
C14642-P124
     RDKit          3D

 54 55  0  0  0  0  0  0  0  0999 V2000
   16.4677   -0.1216   13.0006 C   0  0  0  0  0  0  0  0  0  0  0  0
   14.9568   -0.0986   13.2342 C   0  0  0  0  0  0  0  0  0  0  0  0
   14.2893    0.7989   12.1953 C   0  0  0  0  0  0  0  0  0  0  0  0
   14.2986   -1.7741   13.2131 S   0  0  0  0  0  0  0  0  0  0  0  0
   15.0957   -2.4939   14.1923 O   0  0  0  0  0  0  0  0  0  0  0  0
   14.2745   -2.2046   11.8341 O   0  0  0  0  0  0  0  0  0  0  0  0
   12.6266   -1.6093   13.8318 C   0  0  0  0  0  0  0  0  0  0  0  0
   12.6600   -1.5936   15.2997 C   0  0  0  0  0  0  0  0  0  0  0  0
   11.3554   -2.2816   15.6608 C   0  0  0  0  0  0  0  0  0  0  0  0
   10.2991   -2.2438   14.6339 N   0  0  0  0  0  0  0  0  0  0  0  0
    9.4649   -0.8587   14.7220 C   0  0  0  0  0  0  0  0  0  0  0  0
    9.6563    0.1741   14.1685 O   0  0  0  0  0  0  0  0  0  0  0  0
    8.4319   -1.2266   15.8082 N   0  0  0  0  0  0  0  0  0  0  0  0
    7.3444   -0.2845   16.6383 C   0  0  0  0  0  0  0  0  0  0  0  0
    7.6151    0.0196   18.4685 C   0  0  0  0  0  0  0  0  0  0  0  0
    7.1244   -0.6023   20.0720 C   0  0  0  0  0  0  0  0  0  0  0  0
    5.9166   -1.4790   21.4302 C   0  0  0  0  0  0  0  0  0  0  0  0
    5.3213   -1.7664   23.1862 N   0  0  0  0  0  0  0  0  0  0  0  0
    4.2913   -1.0383   24.2251 C   0  0  0  0  0  0  0  0  0  0  0  0
    4.7533   -0.9883   25.7382 C   0  0  0  0  0  0  0  0  0  0  0  0
    6.1560   -1.5191   25.6617 C   0  0  0  0  0  0  0  0  0  0  0  0
    5.9160   -2.4089   24.3290 C   0  0  0  0  0  0  0  0  0  0  0  0
   11.5193   -2.6415   13.7125 C   0  0  0  0  0  0  0  0  0  0  0  0
   16.7137   -0.5693   12.0315 H   0  0  0  0  0  0  0  0  0  0  0  0
   16.9794   -0.7039   13.7737 H   0  0  0  0  0  0  0  0  0  0  0  0
   16.8814    0.8921   13.0231 H   0  0  0  0  0  0  0  0  0  0  0  0
   14.7661    0.2967   14.2380 H   0  0  0  0  0  0  0  0  0  0  0  0
   14.4295    0.4114   11.1808 H   0  0  0  0  0  0  0  0  0  0  0  0
   13.2144    0.8941   12.3671 H   0  0  0  0  0  0  0  0  0  0  0  0
   14.7126    1.8085   12.2294 H   0  0  0  0  0  0  0  0  0  0  0  0
   12.2389   -0.6671   13.4354 H   0  0  0  0  0  0  0  0  0  0  0  0
   13.4754   -2.1280   15.7955 H   0  0  0  0  0  0  0  0  0  0  0  0
   12.7931   -0.5438   15.5249 H   0  0  0  0  0  0  0  0  0  0  0  0
   10.9697   -1.8629   16.5520 H   0  0  0  0  0  0  0  0  0  0  0  0
   11.5322   -3.3357   15.9370 H   0  0  0  0  0  0  0  0  0  0  0  0
    8.4823   -2.1643   15.9868 H   0  0  0  0  0  0  0  0  0  0  0  0
    7.3693    0.6910   16.1530 H   0  0  0  0  0  0  0  0  0  0  0  0
    6.4480   -0.8299   16.6531 H   0  0  0  0  0  0  0  0  0  0  0  0
    7.5727    1.1177   18.5818 H   0  0  0  0  0  0  0  0  0  0  0  0
    8.6802   -0.0195   18.6190 H   0  0  0  0  0  0  0  0  0  0  0  0
    8.1121   -0.7989   20.3784 H   0  0  0  0  0  0  0  0  0  0  0  0
    6.9928    0.4564   20.3202 H   0  0  0  0  0  0  0  0  0  0  0  0
    4.9184   -1.2091   21.5319 H   0  0  0  0  0  0  0  0  0  0  0  0
    5.8474   -0.4207   21.2093 H   0  0  0  0  0  0  0  0  0  0  0  0
    4.2334    0.0391   24.1322 H   0  0  0  0  0  0  0  0  0  0  0  0
    3.3615   -1.6206   24.2416 H   0  0  0  0  0  0  0  0  0  0  0  0
    4.7181    0.0207   26.1629 H   0  0  0  0  0  0  0  0  0  0  0  0
    4.1091   -1.6357   26.3451 H   0  0  0  0  0  0  0  0  0  0  0  0
    6.4162   -2.0161   26.6021 H   0  0  0  0  0  0  0  0  0  0  0  0
    6.9540   -0.7697   25.5898 H   0  0  0  0  0  0  0  0  0  0  0  0
    4.9630   -2.9185   24.5744 H   0  0  0  0  0  0  0  0  0  0  0  0
    6.6302   -3.2289   24.1187 H   0  0  0  0  0  0  0  0  0  0  0  0
   11.1767   -2.6653   12.7124 H   0  0  0  0  0  0  0  0  0  0  0  0
   11.8203   -3.6705   13.9169 H   0  0  0  0  0  0  0  0  0  0  0  0
  1  2  1  0
  2  3  1  0
  2  4  1  0
  4  5  2  0
  4  6  2  0
  4  7  1  0
  7  8  1  0
  8  9  1  0
  9 10  1  0
 10 11  1  0
 11 12  2  0
 11 13  1  0
 13 14  1  0
 14 15  1  0
 15 16  1  0
 16 17  1  0
 17 18  1  0
 18 19  1  0
 19 20  1  0
 20 21  1  0
 21 22  1  0
 10 23  1  0
 23  7  1  0
 22 18  1  0
  1 24  1  0
  1 25  1  0
  1 26  1  0
  2 27  1  0
  3 28  1  0
  3 29  1  0
  3 30  1  0
  7 31  1  0
  8 32  1  0
  8 33  1  0
  9 34  1  0
  9 35  1  0
 13 36  1  0
 14 37  1  0
 14 38  1  0
 15 39  1  0
 15 40  1  0
 16 41  1  0
 16 42  1  0
 17 43  1  0
 17 44  1  0
 19 45  1  0
 19 46  1  0
 20 47  1  0
 20 48  1  0
 21 49  1  0
 21 50  1  0
 22 51  1  0
 22 52  1  0
 23 53  1  0
 23 54  1  0
M  END
>  <Energy>  (929) 
465.14200457302081

>  <compound_id>  (929) 
14642

>  <target_id>  (929) 
1

>  <reference_id>  (929) 
124

>  <inspiration_ids>  (929) 
[53, 124]

>  <energy_score>  (929) 
492.63855441935004

>  <distance_score>  (929) 
5.363649746585311

>  <path>  (929) 
/opt/xchem-fragalysis-2/maxwin/BulkDock/SCRATCH/511016/C14642-P124/C14642-P124.minimised.mol

>  <scratch_subdir>  (929) 
/opt/xchem-fragalysis-2/maxwin/BulkDock/SCRATCH/511016/C14642-P124

>  <fragmenstein_runtime>  (929) 
12.88428544998169

>  <fragmenstein_outcome>  (929) 
too moved

>  <fragmenstein_mode>  (929) 
expansion

>  <fragmenstein_error>  (929) 


$$$$
C14643-P53
     RDKit          3D

 51 52  0  0  0  0  0  0  0  0999 V2000
   -0.3460    3.0351   27.5849 C   0  0  0  0  0  0  0  0  0  0  0  0
    0.9687    2.4226   28.0248 C   0  0  0  0  0  0  0  0  0  0  0  0
    2.3736    3.1971   27.2297 S   0  0  0  0  0  0  0  0  0  0  0  0
    2.2051    3.0341   25.7984 O   0  0  0  0  0  0  0  0  0  0  0  0
    2.5598    4.5094   27.8158 O   0  0  0  0  0  0  0  0  0  0  0  0
    3.7530    2.1696   27.7512 C   0  0  0  0  0  0  0  0  0  0  0  0
    5.0910    2.5941   27.1308 C   0  0  0  0  0  0  0  0  0  0  0  0
    6.2643    1.6965   27.5882 C   0  0  0  0  0  0  0  0  0  0  0  0
    7.4963    1.9764   26.8691 N   0  0  0  0  0  0  0  0  0  0  0  0
    8.7097    2.6817   27.2866 C   0  0  0  0  0  0  0  0  0  0  0  0
    9.0110    3.1248   28.3332 O   0  0  0  0  0  0  0  0  0  0  0  0
    9.4047    2.7620   25.9777 N   0  0  0  0  0  0  0  0  0  0  0  0
   10.3638    1.5647   25.8036 C   0  0  0  0  0  0  0  0  0  0  0  0
   11.0854    1.5774   24.4212 C   0  0  0  0  0  0  0  0  0  0  0  0
   12.4359    0.9876   24.3479 N   0  0  0  0  0  0  0  0  0  0  0  0
   12.4486   -0.4452   24.6497 C   0  0  0  0  0  0  0  0  0  0  0  0
   13.6794   -1.0017   23.9454 C   0  0  0  0  0  0  0  0  0  0  0  0
   14.0238   -0.0086   22.8512 C   0  0  0  0  0  0  0  0  0  0  0  0
   13.0226    1.1232   23.0045 C   0  0  0  0  0  0  0  0  0  0  0  0
   11.1225    3.0621   24.2102 C   0  0  0  0  0  0  0  0  0  0  0  0
   10.6367    3.5221   25.5727 C   0  0  0  0  0  0  0  0  0  0  0  0
   10.2639    5.0106   25.4935 C   0  0  0  0  0  0  0  0  0  0  0  0
   -0.3768    4.1051   27.8138 H   0  0  0  0  0  0  0  0  0  0  0  0
   -1.1827    2.5510   28.0978 H   0  0  0  0  0  0  0  0  0  0  0  0
   -0.4945    2.9195   26.5065 H   0  0  0  0  0  0  0  0  0  0  0  0
    0.9923    1.3607   27.7620 H   0  0  0  0  0  0  0  0  0  0  0  0
    1.1047    2.5279   29.1051 H   0  0  0  0  0  0  0  0  0  0  0  0
    3.5108    1.1425   27.4594 H   0  0  0  0  0  0  0  0  0  0  0  0
    3.8004    2.2279   28.8432 H   0  0  0  0  0  0  0  0  0  0  0  0
    5.3108    3.6384   27.3834 H   0  0  0  0  0  0  0  0  0  0  0  0
    5.0111    2.5542   26.0378 H   0  0  0  0  0  0  0  0  0  0  0  0
    6.4506    1.8357   28.6578 H   0  0  0  0  0  0  0  0  0  0  0  0
    6.0267    0.6438   27.4050 H   0  0  0  0  0  0  0  0  0  0  0  0
    7.5364    1.8104   25.8809 H   0  0  0  0  0  0  0  0  0  0  0  0
   11.0493    1.4863   26.6651 H   0  0  0  0  0  0  0  0  0  0  0  0
    9.7481    0.6571   25.8695 H   0  0  0  0  0  0  0  0  0  0  0  0
   10.4247    1.1176   23.6737 H   0  0  0  0  0  0  0  0  0  0  0  0
   11.5406   -0.9551   24.3173 H   0  0  0  0  0  0  0  0  0  0  0  0
   12.5198   -0.6093   25.7307 H   0  0  0  0  0  0  0  0  0  0  0  0
   14.5169   -1.0750   24.6497 H   0  0  0  0  0  0  0  0  0  0  0  0
   13.5006   -2.0055   23.5471 H   0  0  0  0  0  0  0  0  0  0  0  0
   15.0475    0.3574   22.9915 H   0  0  0  0  0  0  0  0  0  0  0  0
   13.9713   -0.4628   21.8566 H   0  0  0  0  0  0  0  0  0  0  0  0
   13.5242    2.0893   22.8854 H   0  0  0  0  0  0  0  0  0  0  0  0
   12.2524    1.0629   22.2354 H   0  0  0  0  0  0  0  0  0  0  0  0
   10.4352    3.3513   23.4060 H   0  0  0  0  0  0  0  0  0  0  0  0
   12.1037    3.4893   23.9818 H   0  0  0  0  0  0  0  0  0  0  0  0
   11.4129    3.4761   26.3568 H   0  0  0  0  0  0  0  0  0  0  0  0
    9.4521    5.1809   24.7772 H   0  0  0  0  0  0  0  0  0  0  0  0
   11.1258    5.6126   25.1870 H   0  0  0  0  0  0  0  0  0  0  0  0
    9.9237    5.3779   26.4679 H   0  0  0  0  0  0  0  0  0  0  0  0
  1  2  1  0
  2  3  1  0
  3  4  2  0
  3  5  2  0
  3  6  1  0
  6  7  1  0
  7  8  1  0
  8  9  1  0
  9 10  1  0
 10 11  2  0
 10 12  1  0
 12 13  1  0
 13 14  1  0
 14 15  1  0
 15 16  1  0
 16 17  1  0
 17 18  1  0
 18 19  1  0
 14 20  1  0
 20 21  1  0
 21 22  1  0
 21 12  1  0
 19 15  1  0
  1 23  1  0
  1 24  1  0
  1 25  1  0
  2 26  1  0
  2 27  1  0
  6 28  1  0
  6 29  1  0
  7 30  1  0
  7 31  1  0
  8 32  1  0
  8 33  1  0
  9 34  1  0
 13 35  1  0
 13 36  1  0
 14 37  1  0
 16 38  1  0
 16 39  1  0
 17 40  1  0
 17 41  1  0
 18 42  1  0
 18 43  1  0
 19 44  1  0
 19 45  1  0
 20 46  1  0
 20 47  1  0
 21 48  1  0
 22 49  1  0
 22 50  1  0
 22 51  1  0
M  END
>  <Energy>  (930) 
9.5922892556310728

>  <compound_id>  (930) 
14643

>  <target_id>  (930) 
1

>  <reference_id>  (930) 
53

>  <inspiration_ids>  (930) 
[53, 124]

>  <energy_score>  (930) 
9.572382179632086

>  <distance_score>  (930) 
8.51386617698271

>  <path>  (930) 
/opt/xchem-fragalysis-2/maxwin/BulkDock/SCRATCH/511016/C14643-P53/C14643-P53.minimised.mol

>  <scratch_subdir>  (930) 
/opt/xchem-fragalysis-2/maxwin/BulkDock/SCRATCH/511016/C14643-P53

>  <fragmenstein_runtime>  (930) 
29.4880268573761

>  <fragmenstein_outcome>  (930) 
too moved

>  <fragmenstein_mode>  (930) 
expansion

>  <fragmenstein_error>  (930) 


$$$$
C14643-P124
     RDKit          3D

 51 52  0  0  0  0  0  0  0  0999 V2000
   -0.0260    3.3547   27.7045 C   0  0  0  0  0  0  0  0  0  0  0  0
    1.1703    4.0103   27.0364 C   0  0  0  0  0  0  0  0  0  0  0  0
    0.9370    4.1432   25.2731 S   0  0  0  0  0  0  0  0  0  0  0  0
   -0.0863    5.1443   25.0460 O   0  0  0  0  0  0  0  0  0  0  0  0
    0.7664    2.7933   24.7685 O   0  0  0  0  0  0  0  0  0  0  0  0
    2.5053    4.7987   24.6507 C   0  0  0  0  0  0  0  0  0  0  0  0
    2.5242    4.7739   23.1175 C   0  0  0  0  0  0  0  0  0  0  0  0
    3.5508    5.6876   22.4255 C   0  0  0  0  0  0  0  0  0  0  0  0
    4.9137    5.2113   22.2461 N   0  0  0  0  0  0  0  0  0  0  0  0
    6.2015    5.8549   22.5402 C   0  0  0  0  0  0  0  0  0  0  0  0
    6.4355    6.8792   23.0644 O   0  0  0  0  0  0  0  0  0  0  0  0
    7.1270    4.7933   22.0572 N   0  0  0  0  0  0  0  0  0  0  0  0
    7.5122    5.0523   20.5689 C   0  0  0  0  0  0  0  0  0  0  0  0
    8.8530    4.4845   20.0072 C   0  0  0  0  0  0  0  0  0  0  0  0
    8.9651    3.6651   18.7917 N   0  0  0  0  0  0  0  0  0  0  0  0
    8.1489    4.1499   17.6718 C   0  0  0  0  0  0  0  0  0  0  0  0
    8.9131    3.7115   16.4353 C   0  0  0  0  0  0  0  0  0  0  0  0
   10.3355    4.0149   16.8422 C   0  0  0  0  0  0  0  0  0  0  0  0
   10.3686    3.6310   18.3108 C   0  0  0  0  0  0  0  0  0  0  0  0
    9.2605    3.7140   21.2089 C   0  0  0  0  0  0  0  0  0  0  0  0
    8.6232    4.6645   22.1971 C   0  0  0  0  0  0  0  0  0  0  0  0
    8.9502    4.2037   23.6248 C   0  0  0  0  0  0  0  0  0  0  0  0
    0.1301    3.2929   28.7857 H   0  0  0  0  0  0  0  0  0  0  0  0
   -0.1853    2.3403   27.3249 H   0  0  0  0  0  0  0  0  0  0  0  0
   -0.9415    3.9273   27.5237 H   0  0  0  0  0  0  0  0  0  0  0  0
    1.3295    5.0199   27.4255 H   0  0  0  0  0  0  0  0  0  0  0  0
    2.0714    3.4130   27.2036 H   0  0  0  0  0  0  0  0  0  0  0  0
    2.5891    5.8202   25.0338 H   0  0  0  0  0  0  0  0  0  0  0  0
    3.3116    4.1896   25.0645 H   0  0  0  0  0  0  0  0  0  0  0  0
    1.5386    5.1151   22.7724 H   0  0  0  0  0  0  0  0  0  0  0  0
    2.6113    3.7433   22.7640 H   0  0  0  0  0  0  0  0  0  0  0  0
    3.1939    5.8884   21.4085 H   0  0  0  0  0  0  0  0  0  0  0  0
    3.5995    6.6545   22.9381 H   0  0  0  0  0  0  0  0  0  0  0  0
    5.0786    4.3680   21.7074 H   0  0  0  0  0  0  0  0  0  0  0  0
    7.4643    6.1372   20.3842 H   0  0  0  0  0  0  0  0  0  0  0  0
    6.6717    4.6386   19.9996 H   0  0  0  0  0  0  0  0  0  0  0  0
    9.4973    5.3694   19.8828 H   0  0  0  0  0  0  0  0  0  0  0  0
    8.0652    5.2445   17.6787 H   0  0  0  0  0  0  0  0  0  0  0  0
    7.1419    3.7230   17.6941 H   0  0  0  0  0  0  0  0  0  0  0  0
    8.7729    2.6416   16.2504 H   0  0  0  0  0  0  0  0  0  0  0  0
    8.6117    4.2650   15.5418 H   0  0  0  0  0  0  0  0  0  0  0  0
   11.0868    3.5049   16.2403 H   0  0  0  0  0  0  0  0  0  0  0  0
   10.5185    5.0928   16.7420 H   0  0  0  0  0  0  0  0  0  0  0  0
   10.7431    2.6191   18.4346 H   0  0  0  0  0  0  0  0  0  0  0  0
   11.0538    4.2921   18.8543 H   0  0  0  0  0  0  0  0  0  0  0  0
    8.8107    2.7152   21.2554 H   0  0  0  0  0  0  0  0  0  0  0  0
   10.3458    3.6320   21.3224 H   0  0  0  0  0  0  0  0  0  0  0  0
    9.0574    5.6813   22.1509 H   0  0  0  0  0  0  0  0  0  0  0  0
    8.6369    3.1721   23.7988 H   0  0  0  0  0  0  0  0  0  0  0  0
    8.4529    4.8364   24.3676 H   0  0  0  0  0  0  0  0  0  0  0  0
   10.0293    4.2551   23.8063 H   0  0  0  0  0  0  0  0  0  0  0  0
  1  2  1  0
  2  3  1  0
  3  4  2  0
  3  5  2  0
  3  6  1  0
  6  7  1  0
  7  8  1  0
  8  9  1  0
  9 10  1  0
 10 11  2  0
 10 12  1  0
 12 13  1  0
 13 14  1  0
 14 15  1  0
 15 16  1  0
 16 17  1  0
 17 18  1  0
 18 19  1  0
 14 20  1  0
 20 21  1  0
 21 22  1  0
 21 12  1  0
 19 15  1  0
  1 23  1  0
  1 24  1  0
  1 25  1  0
  2 26  1  0
  2 27  1  0
  6 28  1  0
  6 29  1  0
  7 30  1  0
  7 31  1  0
  8 32  1  0
  8 33  1  0
  9 34  1  0
 13 35  1  0
 13 36  1  0
 14 37  1  0
 16 38  1  0
 16 39  1  0
 17 40  1  0
 17 41  1  0
 18 42  1  0
 18 43  1  0
 19 44  1  0
 19 45  1  0
 20 46  1  0
 20 47  1  0
 21 48  1  0
 22 49  1  0
 22 50  1  0
 22 51  1  0
M  END
>  <Energy>  (931) 
19.495681167999436

>  <compound_id>  (931) 
14643

>  <target_id>  (931) 
1

>  <reference_id>  (931) 
124

>  <inspiration_ids>  (931) 
[53, 124]

>  <energy_score>  (931) 
19.475774091998233

>  <distance_score>  (931) 
8.085376986493198

>  <path>  (931) 
/opt/xchem-fragalysis-2/maxwin/BulkDock/SCRATCH/511016/C14643-P124/C14643-P124.minimised.mol

>  <scratch_subdir>  (931) 
/opt/xchem-fragalysis-2/maxwin/BulkDock/SCRATCH/511016/C14643-P124

>  <fragmenstein_runtime>  (931) 
26.770570755004883

>  <fragmenstein_outcome>  (931) 
too moved

>  <fragmenstein_mode>  (931) 
expansion

>  <fragmenstein_error>  (931) 


$$$$
C14648-P53
     RDKit          3D

 50 52  0  0  0  0  0  0  0  0999 V2000
    9.7658    1.4292   25.1771 O   0  0  0  0  0  0  0  0  0  0  0  0
   10.7617    2.0976   25.0746 C   0  0  0  0  0  0  0  0  0  0  0  0
   10.6423    3.6393   25.3049 C   0  0  0  0  0  0  0  0  0  0  0  0
    9.3642    4.2313   25.0592 O   0  0  0  0  0  0  0  0  0  0  0  0
    8.5462    4.5656   26.2041 C   0  0  0  0  0  0  0  0  0  0  0  0
    7.7396    3.4389   26.6848 C   0  0  0  0  0  0  0  0  0  0  0  0
    6.6956    2.9251   26.9805 C   0  0  0  0  0  0  0  0  0  0  0  0
    5.2521    2.9385   27.2176 C   0  0  0  0  0  0  0  0  0  0  0  0
    4.7314    4.3531   26.8712 C   0  0  0  0  0  0  0  0  0  0  0  0
    5.5343    5.4805   27.5563 C   0  0  0  0  0  0  0  0  0  0  0  0
    6.5397    6.2869   26.6978 C   0  0  0  0  0  0  0  0  0  0  0  0
    7.5124    5.6226   25.6938 C   0  0  0  0  0  0  0  0  0  0  0  0
   12.1318    1.7063   24.8567 N   0  0  0  0  0  0  0  0  0  0  0  0
   12.7565    0.3612   24.8003 C   0  0  0  0  0  0  0  0  0  0  0  0
   14.1430    0.3627   24.2244 C   0  0  0  0  0  0  0  0  0  0  0  0
   13.9196    1.2301   23.0184 C   0  0  0  0  0  0  0  0  0  0  0  0
   14.1531    0.6264   21.6861 N   0  0  0  0  0  0  0  0  0  0  0  0
   14.8068    1.5352   20.7317 C   0  0  0  0  0  0  0  0  0  0  0  0
   15.5664    0.6454   19.7451 C   0  0  0  0  0  0  0  0  0  0  0  0
   15.3077   -0.7775   20.1986 C   0  0  0  0  0  0  0  0  0  0  0  0
   14.9434   -0.6100   21.6588 C   0  0  0  0  0  0  0  0  0  0  0  0
   12.4478    1.6608   23.3393 C   0  0  0  0  0  0  0  0  0  0  0  0
   11.3410    4.1322   24.6208 H   0  0  0  0  0  0  0  0  0  0  0  0
   10.9790    3.8528   26.3260 H   0  0  0  0  0  0  0  0  0  0  0  0
    9.1624    5.0095   26.9930 H   0  0  0  0  0  0  0  0  0  0  0  0
    5.0374    2.7101   28.2672 H   0  0  0  0  0  0  0  0  0  0  0  0
    4.7415    2.1926   26.6002 H   0  0  0  0  0  0  0  0  0  0  0  0
    3.6855    4.4090   27.1977 H   0  0  0  0  0  0  0  0  0  0  0  0
    4.7270    4.5034   25.7852 H   0  0  0  0  0  0  0  0  0  0  0  0
    6.0444    5.1024   28.4513 H   0  0  0  0  0  0  0  0  0  0  0  0
    4.8078    6.2102   27.9403 H   0  0  0  0  0  0  0  0  0  0  0  0
    5.9475    7.0069   26.1159 H   0  0  0  0  0  0  0  0  0  0  0  0
    7.1387    6.8967   27.3870 H   0  0  0  0  0  0  0  0  0  0  0  0
    6.9227    5.1899   24.8744 H   0  0  0  0  0  0  0  0  0  0  0  0
    8.0855    6.4295   25.2148 H   0  0  0  0  0  0  0  0  0  0  0  0
   12.8172    0.0406   25.8494 H   0  0  0  0  0  0  0  0  0  0  0  0
   12.0759   -0.3795   24.3521 H   0  0  0  0  0  0  0  0  0  0  0  0
   14.4903   -0.6591   24.0670 H   0  0  0  0  0  0  0  0  0  0  0  0
   14.8525    0.8418   24.9103 H   0  0  0  0  0  0  0  0  0  0  0  0
   14.5647    2.1103   23.1431 H   0  0  0  0  0  0  0  0  0  0  0  0
   15.5292    2.2018   21.2187 H   0  0  0  0  0  0  0  0  0  0  0  0
   14.0671    2.1610   20.2242 H   0  0  0  0  0  0  0  0  0  0  0  0
   15.2724    0.8034   18.7072 H   0  0  0  0  0  0  0  0  0  0  0  0
   16.6397    0.8623   19.8121 H   0  0  0  0  0  0  0  0  0  0  0  0
   16.1840   -1.4182   20.0602 H   0  0  0  0  0  0  0  0  0  0  0  0
   14.4789   -1.2261   19.6463 H   0  0  0  0  0  0  0  0  0  0  0  0
   14.3729   -1.4746   22.0119 H   0  0  0  0  0  0  0  0  0  0  0  0
   15.8634   -0.5118   22.2491 H   0  0  0  0  0  0  0  0  0  0  0  0
   12.2958    2.6817   22.9626 H   0  0  0  0  0  0  0  0  0  0  0  0
   11.6850    1.0668   22.8153 H   0  0  0  0  0  0  0  0  0  0  0  0
  1  2  2  0
  2  3  1  0
  3  4  1  0
  4  5  1  0
  5  6  1  0
  6  7  3  0
  7  8  1  0
  8  9  1  0
  9 10  1  0
 10 11  1  0
 11 12  1  0
  2 13  1  0
 13 14  1  0
 14 15  1  0
 15 16  1  0
 16 17  1  0
 17 18  1  0
 18 19  1  0
 19 20  1  0
 20 21  1  0
 16 22  1  0
 12  5  1  0
 22 13  1  0
 21 17  1  0
  3 23  1  0
  3 24  1  0
  5 25  1  0
  8 26  1  0
  8 27  1  0
  9 28  1  0
  9 29  1  0
 10 30  1  0
 10 31  1  0
 11 32  1  0
 11 33  1  0
 12 34  1  0
 12 35  1  0
 14 36  1  0
 14 37  1  0
 15 38  1  0
 15 39  1  0
 16 40  1  0
 18 41  1  0
 18 42  1  0
 19 43  1  0
 19 44  1  0
 20 45  1  0
 20 46  1  0
 21 47  1  0
 21 48  1  0
 22 49  1  0
 22 50  1  0
M  END
>  <Energy>  (932) 
153.25365487302605

>  <compound_id>  (932) 
14648

>  <target_id>  (932) 
1

>  <reference_id>  (932) 
53

>  <inspiration_ids>  (932) 
[53, 124]

>  <energy_score>  (932) 
-118.67396645451998

>  <distance_score>  (932) 
6.991764847176312

>  <path>  (932) 
/opt/xchem-fragalysis-2/maxwin/BulkDock/SCRATCH/511016/C14648-P53/C14648-P53.minimised.mol

>  <scratch_subdir>  (932) 
/opt/xchem-fragalysis-2/maxwin/BulkDock/SCRATCH/511016/C14648-P53

>  <fragmenstein_runtime>  (932) 
11.508188009262085

>  <fragmenstein_outcome>  (932) 
too moved

>  <fragmenstein_mode>  (932) 
expansion

>  <fragmenstein_error>  (932) 


$$$$
C14648-P124
     RDKit          3D

 50 52  0  0  0  0  0  0  0  0999 V2000
   11.3188    5.4268   23.3162 O   0  0  0  0  0  0  0  0  0  0  0  0
   11.1187    4.4506   22.6364 C   0  0  0  0  0  0  0  0  0  0  0  0
   10.0154    3.4513   23.1006 C   0  0  0  0  0  0  0  0  0  0  0  0
    8.6546    3.8778   23.1112 O   0  0  0  0  0  0  0  0  0  0  0  0
    8.2472    4.8382   24.1012 C   0  0  0  0  0  0  0  0  0  0  0  0
    6.8361    5.1962   23.8635 C   0  0  0  0  0  0  0  0  0  0  0  0
    5.6864    5.4126   24.1345 C   0  0  0  0  0  0  0  0  0  0  0  0
    4.4879    5.4969   24.9680 C   0  0  0  0  0  0  0  0  0  0  0  0
    4.9037    5.4974   26.4522 C   0  0  0  0  0  0  0  0  0  0  0  0
    6.0198    4.4935   26.8367 C   0  0  0  0  0  0  0  0  0  0  0  0
    7.4771    5.0038   26.6387 C   0  0  0  0  0  0  0  0  0  0  0  0
    8.3267    4.2794   25.5528 C   0  0  0  0  0  0  0  0  0  0  0  0
   11.6780    4.0651   21.3619 N   0  0  0  0  0  0  0  0  0  0  0  0
   12.5855    4.7970   20.4417 C   0  0  0  0  0  0  0  0  0  0  0  0
   13.2340    3.9159   19.4119 C   0  0  0  0  0  0  0  0  0  0  0  0
   13.9642    3.0525   20.3790 C   0  0  0  0  0  0  0  0  0  0  0  0
   14.2848    1.7440   19.8124 N   0  0  0  0  0  0  0  0  0  0  0  0
   15.2062    1.7844   18.6693 C   0  0  0  0  0  0  0  0  0  0  0  0
   15.5715    0.3200   18.4628 C   0  0  0  0  0  0  0  0  0  0  0  0
   15.3356   -0.3403   19.8173 C   0  0  0  0  0  0  0  0  0  0  0  0
   14.8925    0.7902   20.7406 C   0  0  0  0  0  0  0  0  0  0  0  0
   12.9594    3.2032   21.5720 C   0  0  0  0  0  0  0  0  0  0  0  0
   10.0488    2.5808   22.4349 H   0  0  0  0  0  0  0  0  0  0  0  0
   10.3010    3.0766   24.0899 H   0  0  0  0  0  0  0  0  0  0  0  0
    8.8615    5.7401   24.0103 H   0  0  0  0  0  0  0  0  0  0  0  0
    3.8319    4.6419   24.7756 H   0  0  0  0  0  0  0  0  0  0  0  0
    3.9133    6.4016   24.7440 H   0  0  0  0  0  0  0  0  0  0  0  0
    5.2172    6.5083   26.7427 H   0  0  0  0  0  0  0  0  0  0  0  0
    4.0088    5.2742   27.0468 H   0  0  0  0  0  0  0  0  0  0  0  0
    5.8627    3.5278   26.3442 H   0  0  0  0  0  0  0  0  0  0  0  0
    5.9006    4.3026   27.9120 H   0  0  0  0  0  0  0  0  0  0  0  0
    7.5094    6.0896   26.4907 H   0  0  0  0  0  0  0  0  0  0  0  0
    7.9951    4.8234   27.5910 H   0  0  0  0  0  0  0  0  0  0  0  0
    8.1020    3.2079   25.5688 H   0  0  0  0  0  0  0  0  0  0  0  0
    9.3799    4.3454   25.8582 H   0  0  0  0  0  0  0  0  0  0  0  0
   11.9322    5.5132   19.9256 H   0  0  0  0  0  0  0  0  0  0  0  0
   13.2846    5.4372   21.0077 H   0  0  0  0  0  0  0  0  0  0  0  0
   13.8924    4.4661   18.7338 H   0  0  0  0  0  0  0  0  0  0  0  0
   12.4785    3.3764   18.8292 H   0  0  0  0  0  0  0  0  0  0  0  0
   14.9009    3.5415   20.6855 H   0  0  0  0  0  0  0  0  0  0  0  0
   16.1079    2.3625   18.9086 H   0  0  0  0  0  0  0  0  0  0  0  0
   14.7539    2.2107   17.7691 H   0  0  0  0  0  0  0  0  0  0  0  0
   14.9380   -0.1465   17.7013 H   0  0  0  0  0  0  0  0  0  0  0  0
   16.6124    0.2138   18.1403 H   0  0  0  0  0  0  0  0  0  0  0  0
   16.2396   -0.8311   20.1918 H   0  0  0  0  0  0  0  0  0  0  0  0
   14.5543   -1.1029   19.7293 H   0  0  0  0  0  0  0  0  0  0  0  0
   14.1901    0.4307   21.4984 H   0  0  0  0  0  0  0  0  0  0  0  0
   15.7620    1.2262   21.2483 H   0  0  0  0  0  0  0  0  0  0  0  0
   13.4896    3.5714   22.4654 H   0  0  0  0  0  0  0  0  0  0  0  0
   12.5767    2.2151   21.8618 H   0  0  0  0  0  0  0  0  0  0  0  0
  1  2  2  0
  2  3  1  0
  3  4  1  0
  4  5  1  0
  5  6  1  0
  6  7  3  0
  7  8  1  0
  8  9  1  0
  9 10  1  0
 10 11  1  0
 11 12  1  0
  2 13  1  0
 13 14  1  0
 14 15  1  0
 15 16  1  0
 16 17  1  0
 17 18  1  0
 18 19  1  0
 19 20  1  0
 20 21  1  0
 16 22  1  0
 12  5  1  0
 22 13  1  0
 21 17  1  0
  3 23  1  0
  3 24  1  0
  5 25  1  0
  8 26  1  0
  8 27  1  0
  9 28  1  0
  9 29  1  0
 10 30  1  0
 10 31  1  0
 11 32  1  0
 11 33  1  0
 12 34  1  0
 12 35  1  0
 14 36  1  0
 14 37  1  0
 15 38  1  0
 15 39  1  0
 16 40  1  0
 18 41  1  0
 18 42  1  0
 19 43  1  0
 19 44  1  0
 20 45  1  0
 20 46  1  0
 21 47  1  0
 21 48  1  0
 22 49  1  0
 22 50  1  0
M  END
>  <Energy>  (933) 
145.22802378304584

>  <compound_id>  (933) 
14648

>  <target_id>  (933) 
1

>  <reference_id>  (933) 
124

>  <inspiration_ids>  (933) 
[53, 124]

>  <energy_score>  (933) 
-126.69959754449928

>  <distance_score>  (933) 
6.413768722333734

>  <path>  (933) 
/opt/xchem-fragalysis-2/maxwin/BulkDock/SCRATCH/511016/C14648-P124/C14648-P124.minimised.mol

>  <scratch_subdir>  (933) 
/opt/xchem-fragalysis-2/maxwin/BulkDock/SCRATCH/511016/C14648-P124

>  <fragmenstein_runtime>  (933) 
13.55924916267395

>  <fragmenstein_outcome>  (933) 
too moved

>  <fragmenstein_mode>  (933) 
expansion

>  <fragmenstein_error>  (933) 


$$$$
C14655-P53
     RDKit          3D

 46 48  0  0  0  0  0  0  0  0999 V2000
   14.5775    1.2385   24.9997 O   0  0  0  0  0  0  0  0  0  0  0  0
   13.9508    1.0738   23.9823 C   0  0  0  0  0  0  0  0  0  0  0  0
   12.3845    1.1474   24.0324 C   0  0  0  0  0  0  0  0  0  0  0  0
   11.9211    2.2400   24.8506 O   0  0  0  0  0  0  0  0  0  0  0  0
   10.4918    2.3655   24.9579 C   0  0  0  0  0  0  0  0  0  0  0  0
   10.1247    3.8536   25.1538 C   0  0  0  0  0  0  0  0  0  0  0  0
    9.5114    4.1463   26.5232 C   0  0  0  0  0  0  0  0  0  0  0  0
    8.3979    3.1750   26.9057 C   0  0  0  0  0  0  0  0  0  0  0  0
    8.5672    1.8587   26.3785 O   0  0  0  0  0  0  0  0  0  0  0  0
    9.9315    1.5232   26.1153 C   0  0  0  0  0  0  0  0  0  0  0  0
   14.4012    0.8993   22.6248 N   0  0  0  0  0  0  0  0  0  0  0  0
   15.7713    0.9765   22.0340 C   0  0  0  0  0  0  0  0  0  0  0  0
   15.8561    0.3660   20.6487 C   0  0  0  0  0  0  0  0  0  0  0  0
   14.8793   -0.7630   20.8072 C   0  0  0  0  0  0  0  0  0  0  0  0
   15.3654   -2.0356   20.2693 N   0  0  0  0  0  0  0  0  0  0  0  0
   15.5389   -2.0284   18.8014 C   0  0  0  0  0  0  0  0  0  0  0  0
   14.5892   -3.0714   18.2369 C   0  0  0  0  0  0  0  0  0  0  0  0
   14.4771   -4.0680   19.3679 C   0  0  0  0  0  0  0  0  0  0  0  0
   14.5240   -3.1934   20.6118 C   0  0  0  0  0  0  0  0  0  0  0  0
   14.6017   -0.5889   22.3143 C   0  0  0  0  0  0  0  0  0  0  0  0
   11.9937    1.2827   23.0184 H   0  0  0  0  0  0  0  0  0  0  0  0
   12.0221    0.2005   24.4451 H   0  0  0  0  0  0  0  0  0  0  0  0
   10.0399    2.0418   24.0126 H   0  0  0  0  0  0  0  0  0  0  0  0
    9.4030    4.1486   24.3838 H   0  0  0  0  0  0  0  0  0  0  0  0
   11.0036    4.4922   25.0045 H   0  0  0  0  0  0  0  0  0  0  0  0
    9.1473    5.1784   26.5749 H   0  0  0  0  0  0  0  0  0  0  0  0
   10.3105    4.0704   27.2725 H   0  0  0  0  0  0  0  0  0  0  0  0
    7.4342    3.5453   26.5407 H   0  0  0  0  0  0  0  0  0  0  0  0
    8.3185    3.1038   27.9960 H   0  0  0  0  0  0  0  0  0  0  0  0
    9.9711    0.4619   25.8471 H   0  0  0  0  0  0  0  0  0  0  0  0
   10.5320    1.6288   27.0276 H   0  0  0  0  0  0  0  0  0  0  0  0
   16.5373    0.6077   22.7371 H   0  0  0  0  0  0  0  0  0  0  0  0
   15.9906    2.0501   21.9602 H   0  0  0  0  0  0  0  0  0  0  0  0
   16.8838    0.0609   20.4255 H   0  0  0  0  0  0  0  0  0  0  0  0
   15.5271    1.0650   19.8717 H   0  0  0  0  0  0  0  0  0  0  0  0
   13.9620   -0.4970   20.2867 H   0  0  0  0  0  0  0  0  0  0  0  0
   15.3846   -1.0524   18.3305 H   0  0  0  0  0  0  0  0  0  0  0  0
   16.5731   -2.3242   18.5884 H   0  0  0  0  0  0  0  0  0  0  0  0
   13.6110   -2.6290   18.0227 H   0  0  0  0  0  0  0  0  0  0  0  0
   14.9672   -3.5284   17.3178 H   0  0  0  0  0  0  0  0  0  0  0  0
   13.5627   -4.6654   19.3086 H   0  0  0  0  0  0  0  0  0  0  0  0
   15.3357   -4.7503   19.3530 H   0  0  0  0  0  0  0  0  0  0  0  0
   14.9460   -3.7388   21.4621 H   0  0  0  0  0  0  0  0  0  0  0  0
   13.5074   -2.9000   20.8872 H   0  0  0  0  0  0  0  0  0  0  0  0
   15.3547   -1.0543   22.9754 H   0  0  0  0  0  0  0  0  0  0  0  0
   13.6744   -1.0994   22.5859 H   0  0  0  0  0  0  0  0  0  0  0  0
  1  2  2  0
  2  3  1  0
  3  4  1  0
  4  5  1  0
  5  6  1  0
  6  7  1  0
  7  8  1  0
  8  9  1  0
  9 10  1  0
  2 11  1  0
 11 12  1  0
 12 13  1  0
 13 14  1  0
 14 15  1  0
 15 16  1  0
 16 17  1  0
 17 18  1  0
 18 19  1  0
 14 20  1  0
 10  5  1  0
 20 11  1  0
 19 15  1  0
  3 21  1  0
  3 22  1  0
  5 23  1  0
  6 24  1  0
  6 25  1  0
  7 26  1  0
  7 27  1  0
  8 28  1  0
  8 29  1  0
 10 30  1  0
 10 31  1  0
 12 32  1  0
 12 33  1  0
 13 34  1  0
 13 35  1  0
 14 36  1  0
 16 37  1  0
 16 38  1  0
 17 39  1  0
 17 40  1  0
 18 41  1  0
 18 42  1  0
 19 43  1  0
 19 44  1  0
 20 45  1  0
 20 46  1  0
M  END
>  <Energy>  (934) 
150.31970924453586

>  <compound_id>  (934) 
14655

>  <target_id>  (934) 
1

>  <reference_id>  (934) 
53

>  <inspiration_ids>  (934) 
[53, 124]

>  <energy_score>  (934) 
20.663946109002325

>  <distance_score>  (934) 
5.884605948130173

>  <path>  (934) 
/opt/xchem-fragalysis-2/maxwin/BulkDock/SCRATCH/511016/C14655-P53/C14655-P53.minimised.mol

>  <scratch_subdir>  (934) 
/opt/xchem-fragalysis-2/maxwin/BulkDock/SCRATCH/511016/C14655-P53

>  <fragmenstein_runtime>  (934) 
7.1800761222839355

>  <fragmenstein_outcome>  (934) 
too moved

>  <fragmenstein_mode>  (934) 
expansion

>  <fragmenstein_error>  (934) 


$$$$
C14655-P124
     RDKit          3D

 46 48  0  0  0  0  0  0  0  0999 V2000
   11.1965    7.0809   21.5746 O   0  0  0  0  0  0  0  0  0  0  0  0
   10.7940    6.0678   21.0600 C   0  0  0  0  0  0  0  0  0  0  0  0
    9.7266    5.2106   21.8160 C   0  0  0  0  0  0  0  0  0  0  0  0
    8.8005    6.0803   22.4847 O   0  0  0  0  0  0  0  0  0  0  0  0
    7.6669    5.4680   23.1080 C   0  0  0  0  0  0  0  0  0  0  0  0
    6.5810    6.5476   23.2506 C   0  0  0  0  0  0  0  0  0  0  0  0
    5.3935    6.0667   24.0794 C   0  0  0  0  0  0  0  0  0  0  0  0
    5.8604    5.4679   25.3980 C   0  0  0  0  0  0  0  0  0  0  0  0
    6.8136    4.4297   25.1654 O   0  0  0  0  0  0  0  0  0  0  0  0
    7.9888    4.9129   24.5027 C   0  0  0  0  0  0  0  0  0  0  0  0
   11.0609    5.5111   19.7608 N   0  0  0  0  0  0  0  0  0  0  0  0
   11.8258    6.0604   18.6059 C   0  0  0  0  0  0  0  0  0  0  0  0
   12.1030    5.0131   17.5596 C   0  0  0  0  0  0  0  0  0  0  0  0
   12.5891    3.9119   18.4505 C   0  0  0  0  0  0  0  0  0  0  0  0
   13.9885    3.5604   18.1828 N   0  0  0  0  0  0  0  0  0  0  0  0
   14.5935    2.6177   19.1174 C   0  0  0  0  0  0  0  0  0  0  0  0
   15.7502    2.0120   18.3434 C   0  0  0  0  0  0  0  0  0  0  0  0
   15.2328    1.9234   16.9244 C   0  0  0  0  0  0  0  0  0  0  0  0
   14.2561    3.0874   16.8114 C   0  0  0  0  0  0  0  0  0  0  0  0
   12.2707    4.5715   19.8198 C   0  0  0  0  0  0  0  0  0  0  0  0
   10.2454    4.5854   22.5489 H   0  0  0  0  0  0  0  0  0  0  0  0
    9.1838    4.5814   21.1030 H   0  0  0  0  0  0  0  0  0  0  0  0
    7.2706    4.6717   22.4661 H   0  0  0  0  0  0  0  0  0  0  0  0
    7.0155    7.4414   23.7181 H   0  0  0  0  0  0  0  0  0  0  0  0
    6.2451    6.8682   22.2571 H   0  0  0  0  0  0  0  0  0  0  0  0
    4.8540    5.3070   23.5038 H   0  0  0  0  0  0  0  0  0  0  0  0
    4.6990    6.8933   24.2624 H   0  0  0  0  0  0  0  0  0  0  0  0
    6.3046    6.2303   26.0484 H   0  0  0  0  0  0  0  0  0  0  0  0
    5.0114    5.0290   25.9315 H   0  0  0  0  0  0  0  0  0  0  0  0
    8.4851    5.6660   25.1274 H   0  0  0  0  0  0  0  0  0  0  0  0
    8.6893    4.0756   24.4153 H   0  0  0  0  0  0  0  0  0  0  0  0
   12.7107    6.6348   18.9301 H   0  0  0  0  0  0  0  0  0  0  0  0
   11.1685    6.8257   18.1716 H   0  0  0  0  0  0  0  0  0  0  0  0
   12.8133    5.3799   16.8129 H   0  0  0  0  0  0  0  0  0  0  0  0
   11.1862    4.7149   17.0378 H   0  0  0  0  0  0  0  0  0  0  0  0
   11.9333    3.0452   18.3292 H   0  0  0  0  0  0  0  0  0  0  0  0
   14.9447    3.1203   20.0242 H   0  0  0  0  0  0  0  0  0  0  0  0
   13.9005    1.8333   19.4175 H   0  0  0  0  0  0  0  0  0  0  0  0
   16.6197    2.6799   18.3811 H   0  0  0  0  0  0  0  0  0  0  0  0
   16.0530    1.0373   18.7372 H   0  0  0  0  0  0  0  0  0  0  0  0
   16.0428    1.9898   16.1914 H   0  0  0  0  0  0  0  0  0  0  0  0
   14.7213    0.9681   16.7696 H   0  0  0  0  0  0  0  0  0  0  0  0
   13.3590    2.7848   16.2619 H   0  0  0  0  0  0  0  0  0  0  0  0
   14.7193    3.9047   16.2468 H   0  0  0  0  0  0  0  0  0  0  0  0
   12.0165    3.7818   20.5411 H   0  0  0  0  0  0  0  0  0  0  0  0
   13.1366    5.0842   20.2753 H   0  0  0  0  0  0  0  0  0  0  0  0
  1  2  2  0
  2  3  1  0
  3  4  1  0
  4  5  1  0
  5  6  1  0
  6  7  1  0
  7  8  1  0
  8  9  1  0
  9 10  1  0
  2 11  1  0
 11 12  1  0
 12 13  1  0
 13 14  1  0
 14 15  1  0
 15 16  1  0
 16 17  1  0
 17 18  1  0
 18 19  1  0
 14 20  1  0
 10  5  1  0
 20 11  1  0
 19 15  1  0
  3 21  1  0
  3 22  1  0
  5 23  1  0
  6 24  1  0
  6 25  1  0
  7 26  1  0
  7 27  1  0
  8 28  1  0
  8 29  1  0
 10 30  1  0
 10 31  1  0
 12 32  1  0
 12 33  1  0
 13 34  1  0
 13 35  1  0
 14 36  1  0
 16 37  1  0
 16 38  1  0
 17 39  1  0
 17 40  1  0
 18 41  1  0
 18 42  1  0
 19 43  1  0
 19 44  1  0
 20 45  1  0
 20 46  1  0
M  END
>  <Energy>  (935) 
141.72780923518349

>  <compound_id>  (935) 
14655

>  <target_id>  (935) 
1

>  <reference_id>  (935) 
124

>  <inspiration_ids>  (935) 
[53, 124]

>  <energy_score>  (935) 
12.072046099651573

>  <distance_score>  (935) 
6.7754580303974015

>  <path>  (935) 
/opt/xchem-fragalysis-2/maxwin/BulkDock/SCRATCH/511016/C14655-P124/C14655-P124.minimised.mol

>  <scratch_subdir>  (935) 
/opt/xchem-fragalysis-2/maxwin/BulkDock/SCRATCH/511016/C14655-P124

>  <fragmenstein_runtime>  (935) 
6.774449586868286

>  <fragmenstein_outcome>  (935) 
too moved

>  <fragmenstein_mode>  (935) 
expansion

>  <fragmenstein_error>  (935) 


$$$$
C14656-P53
     RDKit          3D

 41 43  0  0  0  0  0  0  0  0999 V2000
    9.9962    5.2378   17.2270 O   0  0  0  0  0  0  0  0  0  0  0  0
    8.9452    4.6809   17.0443 C   0  0  0  0  0  0  0  0  0  0  0  0
    7.8597    4.6206   18.1801 C   0  0  0  0  0  0  0  0  0  0  0  0
    8.2200    5.2725   19.4018 O   0  0  0  0  0  0  0  0  0  0  0  0
    7.2546    5.5966   20.3209 C   0  0  0  0  0  0  0  0  0  0  0  0
    5.8880    5.7355   20.0954 C   0  0  0  0  0  0  0  0  0  0  0  0
    5.0324    6.1185   21.1400 C   0  0  0  0  0  0  0  0  0  0  0  0
    5.5696    6.3494   22.3937 C   0  0  0  0  0  0  0  0  0  0  0  0
    6.8838    6.2073   22.6631 N   0  0  0  0  0  0  0  0  0  0  0  0
    7.6908    5.8648   21.6187 C   0  0  0  0  0  0  0  0  0  0  0  0
    8.3976    4.0759   15.8468 N   0  0  0  0  0  0  0  0  0  0  0  0
    8.9146    4.0501   14.4400 C   0  0  0  0  0  0  0  0  0  0  0  0
   10.3079    3.4792   14.2915 C   0  0  0  0  0  0  0  0  0  0  0  0
   10.1735    2.2847   15.1726 C   0  0  0  0  0  0  0  0  0  0  0  0
   10.3625    1.0194   14.4484 N   0  0  0  0  0  0  0  0  0  0  0  0
    9.8098   -0.1720   15.0878 C   0  0  0  0  0  0  0  0  0  0  0  0
   10.7807   -1.3193   14.8252 C   0  0  0  0  0  0  0  0  0  0  0  0
   11.8301   -0.7543   13.8929 C   0  0  0  0  0  0  0  0  0  0  0  0
   11.7727    0.7381   14.1451 C   0  0  0  0  0  0  0  0  0  0  0  0
    8.7824    2.5929   15.7717 C   0  0  0  0  0  0  0  0  0  0  0  0
    7.6752    3.5656   18.4034 H   0  0  0  0  0  0  0  0  0  0  0  0
    6.9624    5.0742   17.7471 H   0  0  0  0  0  0  0  0  0  0  0  0
    5.4454    5.5729   19.1196 H   0  0  0  0  0  0  0  0  0  0  0  0
    3.9663    6.2254   20.9688 H   0  0  0  0  0  0  0  0  0  0  0  0
    4.9456    6.6454   23.2314 H   0  0  0  0  0  0  0  0  0  0  0  0
    8.7480    5.7984   21.8647 H   0  0  0  0  0  0  0  0  0  0  0  0
    8.9524    5.1041   14.1343 H   0  0  0  0  0  0  0  0  0  0  0  0
    8.1755    3.5861   13.7664 H   0  0  0  0  0  0  0  0  0  0  0  0
   11.0668    4.1691   14.6781 H   0  0  0  0  0  0  0  0  0  0  0  0
   10.5430    3.2696   13.2433 H   0  0  0  0  0  0  0  0  0  0  0  0
   10.9036    2.3529   15.9642 H   0  0  0  0  0  0  0  0  0  0  0  0
    8.8264   -0.3973   14.6618 H   0  0  0  0  0  0  0  0  0  0  0  0
    9.6727   -0.0432   16.1647 H   0  0  0  0  0  0  0  0  0  0  0  0
   11.2533   -1.6378   15.7602 H   0  0  0  0  0  0  0  0  0  0  0  0
   10.2855   -2.1951   14.3967 H   0  0  0  0  0  0  0  0  0  0  0  0
   11.5841   -0.9728   12.8511 H   0  0  0  0  0  0  0  0  0  0  0  0
   12.8224   -1.1712   14.0911 H   0  0  0  0  0  0  0  0  0  0  0  0
   12.1211    1.3027   13.2746 H   0  0  0  0  0  0  0  0  0  0  0  0
   12.4239    0.9757   14.9882 H   0  0  0  0  0  0  0  0  0  0  0  0
    7.9798    2.0630   15.2409 H   0  0  0  0  0  0  0  0  0  0  0  0
    8.7514    2.1913   16.7939 H   0  0  0  0  0  0  0  0  0  0  0  0
  1  2  2  0
  2  3  1  0
  3  4  1  0
  4  5  1  0
  5  6  2  0
  6  7  1  0
  7  8  2  0
  8  9  1  0
  9 10  2  0
  2 11  1  0
 11 12  1  0
 12 13  1  0
 13 14  1  0
 14 15  1  0
 15 16  1  0
 16 17  1  0
 17 18  1  0
 18 19  1  0
 14 20  1  0
 10  5  1  0
 20 11  1  0
 19 15  1  0
  3 21  1  0
  3 22  1  0
  6 23  1  0
  7 24  1  0
  8 25  1  0
 10 26  1  0
 12 27  1  0
 12 28  1  0
 13 29  1  0
 13 30  1  0
 14 31  1  0
 16 32  1  0
 16 33  1  0
 17 34  1  0
 17 35  1  0
 18 36  1  0
 18 37  1  0
 19 38  1  0
 19 39  1  0
 20 40  1  0
 20 41  1  0
M  END
>  <Energy>  (936) 
140.91824049480158

>  <compound_id>  (936) 
14656

>  <target_id>  (936) 
1

>  <reference_id>  (936) 
53

>  <inspiration_ids>  (936) 
[53, 124]

>  <energy_score>  (936) 
35.02641781322282

>  <distance_score>  (936) 
6.733765439730928

>  <path>  (936) 
/opt/xchem-fragalysis-2/maxwin/BulkDock/SCRATCH/511016/C14656-P53/C14656-P53.minimised.mol

>  <scratch_subdir>  (936) 
/opt/xchem-fragalysis-2/maxwin/BulkDock/SCRATCH/511016/C14656-P53

>  <fragmenstein_runtime>  (936) 
5.446337938308716

>  <fragmenstein_outcome>  (936) 
too moved

>  <fragmenstein_mode>  (936) 
expansion

>  <fragmenstein_error>  (936) 


$$$$
C14656-P124
     RDKit          3D

 41 43  0  0  0  0  0  0  0  0999 V2000
   10.4171    2.4959   21.9059 O   0  0  0  0  0  0  0  0  0  0  0  0
   10.5032    3.6938   21.7909 C   0  0  0  0  0  0  0  0  0  0  0  0
    9.2224    4.5651   21.9268 C   0  0  0  0  0  0  0  0  0  0  0  0
    8.8412    4.5401   23.3099 O   0  0  0  0  0  0  0  0  0  0  0  0
    7.5991    4.9671   23.6829 C   0  0  0  0  0  0  0  0  0  0  0  0
    6.6429    5.5706   22.8752 C   0  0  0  0  0  0  0  0  0  0  0  0
    5.3971    5.9147   23.4162 C   0  0  0  0  0  0  0  0  0  0  0  0
    5.1461    5.6416   24.7526 C   0  0  0  0  0  0  0  0  0  0  0  0
    6.0472    5.0612   25.5689 N   0  0  0  0  0  0  0  0  0  0  0  0
    7.2505    4.7548   25.0177 C   0  0  0  0  0  0  0  0  0  0  0  0
   11.6554    4.5343   21.6300 N   0  0  0  0  0  0  0  0  0  0  0  0
   13.1144    4.2093   21.6644 C   0  0  0  0  0  0  0  0  0  0  0  0
   13.5500    3.1449   20.6853 C   0  0  0  0  0  0  0  0  0  0  0  0
   12.7131    3.5298   19.5043 C   0  0  0  0  0  0  0  0  0  0  0  0
   13.4562    3.8458   18.2783 N   0  0  0  0  0  0  0  0  0  0  0  0
   12.5950    4.0035   17.1011 C   0  0  0  0  0  0  0  0  0  0  0  0
   13.5344    3.8159   15.9254 C   0  0  0  0  0  0  0  0  0  0  0  0
   14.5155    2.7643   16.4019 C   0  0  0  0  0  0  0  0  0  0  0  0
   14.5404    2.9168   17.9195 C   0  0  0  0  0  0  0  0  0  0  0  0
   11.9685    4.7322   20.1428 C   0  0  0  0  0  0  0  0  0  0  0  0
    8.4522    4.1162   21.2891 H   0  0  0  0  0  0  0  0  0  0  0  0
    9.4154    5.5965   21.6144 H   0  0  0  0  0  0  0  0  0  0  0  0
    6.8329    5.7865   21.8296 H   0  0  0  0  0  0  0  0  0  0  0  0
    4.6362    6.3849   22.8014 H   0  0  0  0  0  0  0  0  0  0  0  0
    4.1922    5.8901   25.2091 H   0  0  0  0  0  0  0  0  0  0  0  0
    7.9588    4.2936   25.7018 H   0  0  0  0  0  0  0  0  0  0  0  0
   13.2939    3.8229   22.6768 H   0  0  0  0  0  0  0  0  0  0  0  0
   13.7174    5.1306   21.6080 H   0  0  0  0  0  0  0  0  0  0  0  0
   14.6336    3.1793   20.5409 H   0  0  0  0  0  0  0  0  0  0  0  0
   13.2899    2.1432   21.0431 H   0  0  0  0  0  0  0  0  0  0  0  0
   11.9882    2.7334   19.3143 H   0  0  0  0  0  0  0  0  0  0  0  0
   12.1267    4.9928   17.0796 H   0  0  0  0  0  0  0  0  0  0  0  0
   11.7988    3.2553   17.0728 H   0  0  0  0  0  0  0  0  0  0  0  0
   13.0115    3.5147   15.0130 H   0  0  0  0  0  0  0  0  0  0  0  0
   14.0679    4.7517   15.7175 H   0  0  0  0  0  0  0  0  0  0  0  0
   15.5055    2.9091   15.9577 H   0  0  0  0  0  0  0  0  0  0  0  0
   14.1681    1.7665   16.1150 H   0  0  0  0  0  0  0  0  0  0  0  0
   15.4946    3.3569   18.2311 H   0  0  0  0  0  0  0  0  0  0  0  0
   14.4694    1.9370   18.4028 H   0  0  0  0  0  0  0  0  0  0  0  0
   11.0090    4.8612   19.6218 H   0  0  0  0  0  0  0  0  0  0  0  0
   12.4939    5.6926   20.0029 H   0  0  0  0  0  0  0  0  0  0  0  0
  1  2  2  0
  2  3  1  0
  3  4  1  0
  4  5  1  0
  5  6  2  0
  6  7  1  0
  7  8  2  0
  8  9  1  0
  9 10  2  0
  2 11  1  0
 11 12  1  0
 12 13  1  0
 13 14  1  0
 14 15  1  0
 15 16  1  0
 16 17  1  0
 17 18  1  0
 18 19  1  0
 14 20  1  0
 10  5  1  0
 20 11  1  0
 19 15  1  0
  3 21  1  0
  3 22  1  0
  6 23  1  0
  7 24  1  0
  8 25  1  0
 10 26  1  0
 12 27  1  0
 12 28  1  0
 13 29  1  0
 13 30  1  0
 14 31  1  0
 16 32  1  0
 16 33  1  0
 17 34  1  0
 17 35  1  0
 18 36  1  0
 18 37  1  0
 19 38  1  0
 19 39  1  0
 20 40  1  0
 20 41  1  0
M  END
>  <Energy>  (937) 
138.91532908191112

>  <compound_id>  (937) 
14656

>  <target_id>  (937) 
1

>  <reference_id>  (937) 
124

>  <inspiration_ids>  (937) 
[53, 124]

>  <energy_score>  (937) 
33.02350640033302

>  <distance_score>  (937) 
6.335461382816875

>  <path>  (937) 
/opt/xchem-fragalysis-2/maxwin/BulkDock/SCRATCH/511016/C14656-P124/C14656-P124.minimised.mol

>  <scratch_subdir>  (937) 
/opt/xchem-fragalysis-2/maxwin/BulkDock/SCRATCH/511016/C14656-P124

>  <fragmenstein_runtime>  (937) 
5.212850093841553

>  <fragmenstein_outcome>  (937) 
too moved

>  <fragmenstein_mode>  (937) 
expansion

>  <fragmenstein_error>  (937) 


$$$$
C14659-P53
     RDKit          3D

 39 41  0  0  0  0  0  0  0  0999 V2000
    7.2039    3.3998   17.6385 O   0  0  0  0  0  0  0  0  0  0  0  0
    8.1429    2.6542   17.7033 C   0  0  0  0  0  0  0  0  0  0  0  0
    8.3303    1.5990   18.9037 C   0  0  0  0  0  0  0  0  0  0  0  0
    7.6115    1.3204   20.0956 O   0  0  0  0  0  0  0  0  0  0  0  0
    6.5653    0.0231   20.0779 C   0  0  0  0  0  0  0  0  0  0  0  0
    5.0108    0.5381   21.2238 C   0  0  0  0  0  0  0  0  0  0  0  0
    5.3768   -0.7643   21.4238 C   0  0  0  0  0  0  0  0  0  0  0  0
    9.2838    2.5104   16.8334 N   0  0  0  0  0  0  0  0  0  0  0  0
    9.7177    3.3216   15.6316 C   0  0  0  0  0  0  0  0  0  0  0  0
   10.6676    2.5916   14.6838 C   0  0  0  0  0  0  0  0  0  0  0  0
   10.3753    1.2009   15.1332 C   0  0  0  0  0  0  0  0  0  0  0  0
   10.6487    0.0950   14.2314 N   0  0  0  0  0  0  0  0  0  0  0  0
   10.2894   -1.2046   14.8214 C   0  0  0  0  0  0  0  0  0  0  0  0
   11.4004   -2.1907   14.4876 C   0  0  0  0  0  0  0  0  0  0  0  0
   12.2916   -1.4514   13.5185 C   0  0  0  0  0  0  0  0  0  0  0  0
   12.0782    0.0034   13.8854 C   0  0  0  0  0  0  0  0  0  0  0  0
    9.0022    1.4833   15.7533 C   0  0  0  0  0  0  0  0  0  0  0  0
    8.5736    0.6367   18.4483 H   0  0  0  0  0  0  0  0  0  0  0  0
    9.2374    2.0308   19.3345 H   0  0  0  0  0  0  0  0  0  0  0  0
    7.1866   -0.8229   19.8609 H   0  0  0  0  0  0  0  0  0  0  0  0
    5.0583    0.9966   22.2322 H   0  0  0  0  0  0  0  0  0  0  0  0
    3.9928    0.8611   21.1421 H   0  0  0  0  0  0  0  0  0  0  0  0
    5.3935   -1.7856   21.0330 H   0  0  0  0  0  0  0  0  0  0  0  0
    5.2441   -0.9533   22.4937 H   0  0  0  0  0  0  0  0  0  0  0  0
    8.8402    3.7532   15.1219 H   0  0  0  0  0  0  0  0  0  0  0  0
   10.2312    4.1978   16.0493 H   0  0  0  0  0  0  0  0  0  0  0  0
   10.3965    2.7874   13.6410 H   0  0  0  0  0  0  0  0  0  0  0  0
   11.7140    2.8741   14.8357 H   0  0  0  0  0  0  0  0  0  0  0  0
   11.0337    1.0382   15.9702 H   0  0  0  0  0  0  0  0  0  0  0  0
    9.3209   -1.5438   14.4423 H   0  0  0  0  0  0  0  0  0  0  0  0
   10.1941   -1.1546   15.9074 H   0  0  0  0  0  0  0  0  0  0  0  0
   11.9637   -2.4358   15.3963 H   0  0  0  0  0  0  0  0  0  0  0  0
   11.0248   -3.1259   14.0645 H   0  0  0  0  0  0  0  0  0  0  0  0
   13.3391   -1.7556   13.6027 H   0  0  0  0  0  0  0  0  0  0  0  0
   11.9686   -1.6408   12.4930 H   0  0  0  0  0  0  0  0  0  0  0  0
   12.7235    0.2504   14.7377 H   0  0  0  0  0  0  0  0  0  0  0  0
   12.3330    0.6692   13.0548 H   0  0  0  0  0  0  0  0  0  0  0  0
    8.1991    1.7700   15.0589 H   0  0  0  0  0  0  0  0  0  0  0  0
    8.6343    0.5811   16.2560 H   0  0  0  0  0  0  0  0  0  0  0  0
  1  2  2  0
  2  3  1  0
  3  4  1  0
  4  5  1  0
  5  6  1  0
  6  7  1  0
  2  8  1  0
  8  9  1  0
  9 10  1  0
 10 11  1  0
 11 12  1  0
 12 13  1  0
 13 14  1  0
 14 15  1  0
 15 16  1  0
 11 17  1  0
  7  5  1  0
 17  8  1  0
 16 12  1  0
  3 18  1  0
  3 19  1  0
  5 20  1  0
  6 21  1  0
  6 22  1  0
  7 23  1  0
  7 24  1  0
  9 25  1  0
  9 26  1  0
 10 27  1  0
 10 28  1  0
 11 29  1  0
 13 30  1  0
 13 31  1  0
 14 32  1  0
 14 33  1  0
 15 34  1  0
 15 35  1  0
 16 36  1  0
 16 37  1  0
 17 38  1  0
 17 39  1  0
M  END
>  <Energy>  (938) 
295.30358173512542

>  <compound_id>  (938) 
14659

>  <target_id>  (938) 
1

>  <reference_id>  (938) 
53

>  <inspiration_ids>  (938) 
[53, 124]

>  <energy_score>  (938) 
211.2899625230379

>  <distance_score>  (938) 
7.358398338223255

>  <path>  (938) 
/opt/xchem-fragalysis-2/maxwin/BulkDock/SCRATCH/511016/C14659-P53/C14659-P53.minimised.mol

>  <scratch_subdir>  (938) 
/opt/xchem-fragalysis-2/maxwin/BulkDock/SCRATCH/511016/C14659-P53

>  <fragmenstein_runtime>  (938) 
7.656386852264404

>  <fragmenstein_outcome>  (938) 
too moved

>  <fragmenstein_mode>  (938) 
expansion

>  <fragmenstein_error>  (938) 


$$$$
C14659-P124
     RDKit          3D

 39 41  0  0  0  0  0  0  0  0999 V2000
   13.6768    1.0319   22.5317 O   0  0  0  0  0  0  0  0  0  0  0  0
   13.8413    1.9930   21.8244 C   0  0  0  0  0  0  0  0  0  0  0  0
   12.7567    3.1133   21.7979 C   0  0  0  0  0  0  0  0  0  0  0  0
   11.5811    2.8532   21.0384 O   0  0  0  0  0  0  0  0  0  0  0  0
   10.4178    2.4375   21.8034 C   0  0  0  0  0  0  0  0  0  0  0  0
    9.5518    3.4916   22.4449 C   0  0  0  0  0  0  0  0  0  0  0  0
    9.1138    2.8512   21.1635 C   0  0  0  0  0  0  0  0  0  0  0  0
   14.9679    2.3726   21.0076 N   0  0  0  0  0  0  0  0  0  0  0  0
   16.3367    1.7496   20.8643 C   0  0  0  0  0  0  0  0  0  0  0  0
   16.4040    0.3409   20.2753 C   0  0  0  0  0  0  0  0  0  0  0  0
   15.0942    0.3037   19.5657 C   0  0  0  0  0  0  0  0  0  0  0  0
   14.9770   -0.3893   18.2912 N   0  0  0  0  0  0  0  0  0  0  0  0
   15.6541    0.1513   17.1240 C   0  0  0  0  0  0  0  0  0  0  0  0
   15.4067   -0.9295   16.0743 C   0  0  0  0  0  0  0  0  0  0  0  0
   15.1529   -2.2126   16.8637 C   0  0  0  0  0  0  0  0  0  0  0  0
   15.3054   -1.8119   18.3241 C   0  0  0  0  0  0  0  0  0  0  0  0
   14.8148    1.8153   19.6084 C   0  0  0  0  0  0  0  0  0  0  0  0
   12.5034    3.3508   22.8389 H   0  0  0  0  0  0  0  0  0  0  0  0
   13.2045    4.0241   21.3838 H   0  0  0  0  0  0  0  0  0  0  0  0
   10.4586    1.4611   22.2775 H   0  0  0  0  0  0  0  0  0  0  0  0
    9.8921    4.5196   22.4075 H   0  0  0  0  0  0  0  0  0  0  0  0
    9.0358    3.2259   23.3588 H   0  0  0  0  0  0  0  0  0  0  0  0
    9.1629    3.4487   20.2589 H   0  0  0  0  0  0  0  0  0  0  0  0
    8.3074    2.1375   21.1564 H   0  0  0  0  0  0  0  0  0  0  0  0
   16.7409    1.7093   21.8845 H   0  0  0  0  0  0  0  0  0  0  0  0
   16.9929    2.4529   20.3265 H   0  0  0  0  0  0  0  0  0  0  0  0
   17.2811    0.2418   19.6282 H   0  0  0  0  0  0  0  0  0  0  0  0
   16.4644   -0.4294   21.0516 H   0  0  0  0  0  0  0  0  0  0  0  0
   14.3870   -0.1917   20.2423 H   0  0  0  0  0  0  0  0  0  0  0  0
   16.7299    0.2717   17.2957 H   0  0  0  0  0  0  0  0  0  0  0  0
   15.2401    1.1110   16.8004 H   0  0  0  0  0  0  0  0  0  0  0  0
   14.5276   -0.6887   15.4651 H   0  0  0  0  0  0  0  0  0  0  0  0
   16.2636   -1.0331   15.4009 H   0  0  0  0  0  0  0  0  0  0  0  0
   14.1383   -2.5773   16.6635 H   0  0  0  0  0  0  0  0  0  0  0  0
   15.8550   -3.0056   16.5875 H   0  0  0  0  0  0  0  0  0  0  0  0
   14.6333   -2.3874   18.9673 H   0  0  0  0  0  0  0  0  0  0  0  0
   16.3370   -1.9817   18.6553 H   0  0  0  0  0  0  0  0  0  0  0  0
   15.4158    2.4034   18.8930 H   0  0  0  0  0  0  0  0  0  0  0  0
   13.7813    2.0178   19.3133 H   0  0  0  0  0  0  0  0  0  0  0  0
  1  2  2  0
  2  3  1  0
  3  4  1  0
  4  5  1  0
  5  6  1  0
  6  7  1  0
  2  8  1  0
  8  9  1  0
  9 10  1  0
 10 11  1  0
 11 12  1  0
 12 13  1  0
 13 14  1  0
 14 15  1  0
 15 16  1  0
 11 17  1  0
  7  5  1  0
 17  8  1  0
 16 12  1  0
  3 18  1  0
  3 19  1  0
  5 20  1  0
  6 21  1  0
  6 22  1  0
  7 23  1  0
  7 24  1  0
  9 25  1  0
  9 26  1  0
 10 27  1  0
 10 28  1  0
 11 29  1  0
 13 30  1  0
 13 31  1  0
 14 32  1  0
 14 33  1  0
 15 34  1  0
 15 35  1  0
 16 36  1  0
 16 37  1  0
 17 38  1  0
 17 39  1  0
M  END
>  <Energy>  (939) 
115.9395636143002

>  <compound_id>  (939) 
14659

>  <target_id>  (939) 
1

>  <reference_id>  (939) 
124

>  <inspiration_ids>  (939) 
[53, 124]

>  <energy_score>  (939) 
31.92594440220688

>  <distance_score>  (939) 
7.455036793864704

>  <path>  (939) 
/opt/xchem-fragalysis-2/maxwin/BulkDock/SCRATCH/511016/C14659-P124/C14659-P124.minimised.mol

>  <scratch_subdir>  (939) 
/opt/xchem-fragalysis-2/maxwin/BulkDock/SCRATCH/511016/C14659-P124

>  <fragmenstein_runtime>  (939) 
8.197041511535645

>  <fragmenstein_outcome>  (939) 
too moved

>  <fragmenstein_mode>  (939) 
expansion

>  <fragmenstein_error>  (939) 


$$$$
C16168-P107
     RDKit          3D

 34 37  0  0  0  0  0  0  0  0999 V2000
   -7.2304  -13.5452   27.5160 O   0  0  0  0  0  0  0  0  0  0  0  0
   -6.9964  -14.2668   28.4633 C   0  0  0  0  0  0  0  0  0  0  0  0
   -5.9962  -13.8735   29.8593 N   0  0  0  0  0  0  0  0  0  0  0  0
   -4.9883  -12.4260   30.2132 C   0  0  0  0  0  0  0  0  0  0  0  0
   -5.3595  -11.4141   31.3118 C   0  0  0  0  0  0  0  0  0  0  0  0
   -4.4916  -10.1210   32.0797 C   0  0  0  0  0  0  0  0  0  0  0  0
   -3.1167   -9.8690   31.7160 C   0  0  0  0  0  0  0  0  0  0  0  0
   -2.3113   -8.7543   32.2722 C   0  0  0  0  0  0  0  0  0  0  0  0
   -1.5014   -7.7762   31.6987 C   0  0  0  0  0  0  0  0  0  0  0  0
   -0.9843   -6.8816   32.6824 C   0  0  0  0  0  0  0  0  0  0  0  0
   -1.3258   -7.1297   33.9400 N   0  0  0  0  0  0  0  0  0  0  0  0
   -2.2309   -8.5097   33.9796 S   0  0  0  0  0  0  0  0  0  0  0  0
   -2.6717  -10.8579   30.6586 C   0  0  0  0  0  0  0  0  0  0  0  0
   -3.6226  -12.0695   29.9374 C   0  0  0  0  0  0  0  0  0  0  0  0
   -7.8301  -15.9599   28.2007 C   0  0  0  0  0  0  0  0  0  0  0  0
   -9.3044  -15.9283   27.9389 C   0  0  0  0  0  0  0  0  0  0  0  0
   -9.8939  -17.1449   27.8851 C   0  0  0  0  0  0  0  0  0  0  0  0
   -9.1890  -18.4781   27.7472 N   0  0  0  0  0  0  0  0  0  0  0  0
   -9.5473  -20.4158   27.7420 C   0  0  0  0  0  0  0  0  0  0  0  0
   -9.9594  -20.4501   28.9973 C   0  0  0  0  0  0  0  0  0  0  0  0
   -8.3239  -19.4199   28.7018 N   0  0  0  0  0  0  0  0  0  0  0  0
   -7.9144  -18.3503   28.0627 C   0  0  0  0  0  0  0  0  0  0  0  0
   -7.2318  -17.1777   28.2224 N   0  0  0  0  0  0  0  0  0  0  0  0
   -5.9095  -14.6839   30.4476 H   0  0  0  0  0  0  0  0  0  0  0  0
   -6.3115  -11.6222   31.7806 H   0  0  0  0  0  0  0  0  0  0  0  0
   -4.9522   -9.5831   32.9011 H   0  0  0  0  0  0  0  0  0  0  0  0
   -1.2496   -7.6717   30.6532 H   0  0  0  0  0  0  0  0  0  0  0  0
   -0.3264   -6.0406   32.4987 H   0  0  0  0  0  0  0  0  0  0  0  0
   -1.6520  -10.7867   30.2701 H   0  0  0  0  0  0  0  0  0  0  0  0
   -3.0609  -12.6240   29.2390 H   0  0  0  0  0  0  0  0  0  0  0  0
   -9.8265  -14.9931   28.0918 H   0  0  0  0  0  0  0  0  0  0  0  0
  -10.9281  -17.1787   28.1432 H   0  0  0  0  0  0  0  0  0  0  0  0
  -10.2464  -20.8233   27.0020 H   0  0  0  0  0  0  0  0  0  0  0  0
  -10.2548  -21.1016   29.8138 H   0  0  0  0  0  0  0  0  0  0  0  0
  1  2  2  0
  2  3  1  0
  3  4  1  0
  4  5  2  0
  5  6  1  0
  6  7  2  0
  7  8  1  0
  8  9  2  0
  9 10  1  0
 10 11  2  0
 11 12  1  0
  7 13  1  0
 13 14  2  0
  2 15  1  0
 15 16  1  0
 16 17  2  0
 17 18  1  0
 18 19  1  0
 19 20  2  0
 20 21  1  0
 21 22  2  0
 22 23  1  0
 14  4  1  0
 23 15  2  0
 12  8  1  0
 22 18  1  0
  3 24  1  0
  5 25  1  0
  6 26  1  0
  9 27  1  0
 10 28  1  0
 13 29  1  0
 14 30  1  0
 16 31  1  0
 17 32  1  0
 19 33  1  0
 20 34  1  0
M  END
>  <Energy>  (940) 
687.2758706811245

>  <compound_id>  (940) 
16168

>  <target_id>  (940) 
1

>  <reference_id>  (940) 
107

>  <inspiration_ids>  (940) 
[107, 187]

>  <energy_score>  (940) 
583.2321211739477

>  <distance_score>  (940) 
7.886101315085862

>  <path>  (940) 
/opt/xchem-fragalysis-2/maxwin/BulkDock/SCRATCH/511016/C16168-P107/C16168-P107.minimised.mol

>  <scratch_subdir>  (940) 
/opt/xchem-fragalysis-2/maxwin/BulkDock/SCRATCH/511016/C16168-P107

>  <fragmenstein_runtime>  (940) 
14.762933015823364

>  <fragmenstein_outcome>  (940) 
too moved

>  <fragmenstein_mode>  (940) 
expansion

>  <fragmenstein_error>  (940) 


$$$$
C16168-P187
     RDKit          3D

 34 37  0  0  0  0  0  0  0  0999 V2000
   -8.1982  -14.2013   29.2551 O   0  0  0  0  0  0  0  0  0  0  0  0
   -8.2418  -14.3738   28.1199 C   0  0  0  0  0  0  0  0  0  0  0  0
   -6.9946  -13.4043   27.1331 N   0  0  0  0  0  0  0  0  0  0  0  0
   -5.5666  -12.2649   27.6526 C   0  0  0  0  0  0  0  0  0  0  0  0
   -3.8984  -12.2893   27.1998 C   0  0  0  0  0  0  0  0  0  0  0  0
   -2.5837  -11.9292   27.8236 C   0  0  0  0  0  0  0  0  0  0  0  0
   -2.3498  -11.5991   29.1204 C   0  0  0  0  0  0  0  0  0  0  0  0
   -1.2920  -10.2760   29.8676 C   0  0  0  0  0  0  0  0  0  0  0  0
   -0.3553   -9.4021   29.2289 C   0  0  0  0  0  0  0  0  0  0  0  0
    0.0204   -8.2212   29.9388 C   0  0  0  0  0  0  0  0  0  0  0  0
   -0.6072   -7.9890   31.0642 N   0  0  0  0  0  0  0  0  0  0  0  0
   -1.5821   -9.2534   31.3532 S   0  0  0  0  0  0  0  0  0  0  0  0
   -3.5941  -11.9434   29.5065 C   0  0  0  0  0  0  0  0  0  0  0  0
   -5.0923  -12.0857   28.9563 C   0  0  0  0  0  0  0  0  0  0  0  0
   -9.6452  -15.7424   27.7224 C   0  0  0  0  0  0  0  0  0  0  0  0
  -11.2568  -15.4514   28.3428 C   0  0  0  0  0  0  0  0  0  0  0  0
  -12.2280  -16.3780   28.8665 C   0  0  0  0  0  0  0  0  0  0  0  0
  -12.1841  -17.9773   28.6981 N   0  0  0  0  0  0  0  0  0  0  0  0
  -12.9747  -19.6572   28.8169 C   0  0  0  0  0  0  0  0  0  0  0  0
  -12.0975  -20.7321   29.2419 C   0  0  0  0  0  0  0  0  0  0  0  0
  -10.9605  -19.7806   29.2665 N   0  0  0  0  0  0  0  0  0  0  0  0
  -10.8335  -18.1810   28.6387 C   0  0  0  0  0  0  0  0  0  0  0  0
   -9.6305  -17.2385   27.8879 N   0  0  0  0  0  0  0  0  0  0  0  0
   -7.1722  -13.5633   26.1643 H   0  0  0  0  0  0  0  0  0  0  0  0
   -3.5515  -12.4584   26.1534 H   0  0  0  0  0  0  0  0  0  0  0  0
   -1.9672  -11.5365   27.0447 H   0  0  0  0  0  0  0  0  0  0  0  0
    0.0160   -9.5903   28.2510 H   0  0  0  0  0  0  0  0  0  0  0  0
    0.7469   -7.4808   29.6415 H   0  0  0  0  0  0  0  0  0  0  0  0
   -3.8049  -11.2491   30.2537 H   0  0  0  0  0  0  0  0  0  0  0  0
   -5.6264  -11.3339   29.4845 H   0  0  0  0  0  0  0  0  0  0  0  0
  -11.4177  -14.3875   28.4492 H   0  0  0  0  0  0  0  0  0  0  0  0
  -13.1508  -15.9884   29.2768 H   0  0  0  0  0  0  0  0  0  0  0  0
  -12.9546  -20.2969   27.9718 H   0  0  0  0  0  0  0  0  0  0  0  0
  -12.0378  -21.8064   29.3077 H   0  0  0  0  0  0  0  0  0  0  0  0
  1  2  2  0
  2  3  1  0
  3  4  1  0
  4  5  2  0
  5  6  1  0
  6  7  2  0
  7  8  1  0
  8  9  2  0
  9 10  1  0
 10 11  2  0
 11 12  1  0
  7 13  1  0
 13 14  2  0
  2 15  1  0
 15 16  1  0
 16 17  2  0
 17 18  1  0
 18 19  1  0
 19 20  2  0
 20 21  1  0
 21 22  2  0
 22 23  1  0
 14  4  1  0
 23 15  2  0
 12  8  1  0
 22 18  1  0
  3 24  1  0
  5 25  1  0
  6 26  1  0
  9 27  1  0
 10 28  1  0
 13 29  1  0
 14 30  1  0
 16 31  1  0
 17 32  1  0
 19 33  1  0
 20 34  1  0
M  END
>  <Energy>  (941) 
976.01242707203369

>  <compound_id>  (941) 
16168

>  <target_id>  (941) 
1

>  <reference_id>  (941) 
187

>  <inspiration_ids>  (941) 
[107, 187]

>  <energy_score>  (941) 
871.9686775648576

>  <distance_score>  (941) 
8.262797750618944

>  <path>  (941) 
/opt/xchem-fragalysis-2/maxwin/BulkDock/SCRATCH/511016/C16168-P187/C16168-P187.minimised.mol

>  <scratch_subdir>  (941) 
/opt/xchem-fragalysis-2/maxwin/BulkDock/SCRATCH/511016/C16168-P187

>  <fragmenstein_runtime>  (941) 
10.58891749382019

>  <fragmenstein_outcome>  (941) 
too moved

>  <fragmenstein_mode>  (941) 
expansion

>  <fragmenstein_error>  (941) 


$$$$
C16171-P107
     RDKit          3D

 40 42  0  0  0  0  0  0  0  0999 V2000
   -3.0496  -11.2485   23.6940 C   0  0  0  0  0  0  0  0  0  0  0  0
   -4.5444  -11.0209   23.4008 C   0  0  0  0  0  0  0  0  0  0  0  0
   -4.8547  -10.7065   21.9343 C   0  0  0  0  0  0  0  0  0  0  0  0
   -4.1258   -9.5286   21.4632 N   0  0  0  0  0  0  0  0  0  0  0  0
   -3.8998   -8.2343   22.0891 C   0  0  0  0  0  0  0  0  0  0  0  0
   -4.3199   -7.7794   23.1136 O   0  0  0  0  0  0  0  0  0  0  0  0
   -2.9079   -7.4303   21.2256 C   0  0  0  0  0  0  0  0  0  0  0  0
   -2.7536   -5.9972   21.6508 C   0  0  0  0  0  0  0  0  0  0  0  0
   -1.6594   -5.3201   22.1625 C   0  0  0  0  0  0  0  0  0  0  0  0
   -1.9306   -3.9224   22.2359 C   0  0  0  0  0  0  0  0  0  0  0  0
   -3.1611   -3.5361   21.9209 N   0  0  0  0  0  0  0  0  0  0  0  0
   -4.0091   -4.8576   21.3904 S   0  0  0  0  0  0  0  0  0  0  0  0
   -5.3302  -12.0417   24.0852 N   0  0  0  0  0  0  0  0  0  0  0  0
   -6.2808  -11.9338   25.1653 C   0  0  0  0  0  0  0  0  0  0  0  0
   -6.7183  -10.9756   25.7078 O   0  0  0  0  0  0  0  0  0  0  0  0
   -6.8903  -13.5144   26.0168 C   0  0  0  0  0  0  0  0  0  0  0  0
   -7.4891  -13.2774   27.2655 C   0  0  0  0  0  0  0  0  0  0  0  0
   -8.0746  -14.0551   28.0927 N   0  0  0  0  0  0  0  0  0  0  0  0
   -9.1467  -14.4075   27.3723 C   0  0  0  0  0  0  0  0  0  0  0  0
  -10.4698  -14.3786   27.5177 N   0  0  0  0  0  0  0  0  0  0  0  0
  -10.8852  -15.5455   26.9071 C   0  0  0  0  0  0  0  0  0  0  0  0
   -9.7786  -16.1860   26.3202 C   0  0  0  0  0  0  0  0  0  0  0  0
   -8.7236  -15.2800   26.4227 N   0  0  0  0  0  0  0  0  0  0  0  0
   -7.6063  -14.7289   25.6667 C   0  0  0  0  0  0  0  0  0  0  0  0
   -2.8742  -11.4201   24.7609 H   0  0  0  0  0  0  0  0  0  0  0  0
   -2.6901  -12.1347   23.1594 H   0  0  0  0  0  0  0  0  0  0  0  0
   -2.4384  -10.3946   23.3881 H   0  0  0  0  0  0  0  0  0  0  0  0
   -4.8038  -10.1105   23.9545 H   0  0  0  0  0  0  0  0  0  0  0  0
   -5.9222  -10.4950   21.8125 H   0  0  0  0  0  0  0  0  0  0  0  0
   -4.5951  -11.5476   21.2840 H   0  0  0  0  0  0  0  0  0  0  0  0
   -3.5421   -9.6040   20.6374 H   0  0  0  0  0  0  0  0  0  0  0  0
   -1.9352   -7.9339   21.2854 H   0  0  0  0  0  0  0  0  0  0  0  0
   -3.2378   -7.4619   20.1797 H   0  0  0  0  0  0  0  0  0  0  0  0
   -0.7033   -5.7715   22.3922 H   0  0  0  0  0  0  0  0  0  0  0  0
   -1.2227   -3.1510   22.5098 H   0  0  0  0  0  0  0  0  0  0  0  0
   -5.2482  -13.0028   23.8167 H   0  0  0  0  0  0  0  0  0  0  0  0
   -8.1843  -12.5164   26.9136 H   0  0  0  0  0  0  0  0  0  0  0  0
  -11.9397  -15.7556   26.8767 H   0  0  0  0  0  0  0  0  0  0  0  0
   -9.7963  -16.9537   25.5920 H   0  0  0  0  0  0  0  0  0  0  0  0
   -7.5100  -15.1530   24.7349 H   0  0  0  0  0  0  0  0  0  0  0  0
  1  2  1  0
  2  3  1  0
  3  4  1  0
  4  5  1  0
  5  6  2  0
  5  7  1  0
  7  8  1  0
  8  9  2  0
  9 10  1  0
 10 11  2  0
 11 12  1  0
  2 13  1  0
 13 14  1  0
 14 15  2  0
 14 16  1  0
 16 17  1  0
 17 18  2  0
 18 19  1  0
 19 20  2  0
 20 21  1  0
 21 22  2  0
 22 23  1  0
 23 24  1  0
 12  8  1  0
 24 16  2  0
 23 19  1  0
  1 25  1  0
  1 26  1  0
  1 27  1  0
  2 28  1  0
  3 29  1  0
  3 30  1  0
  4 31  1  0
  7 32  1  0
  7 33  1  0
  9 34  1  0
 10 35  1  0
 13 36  1  0
 17 37  1  0
 21 38  1  0
 22 39  1  0
 24 40  1  0
M  END
>  <Energy>  (942) 
207.85055464701983

>  <compound_id>  (942) 
16171

>  <target_id>  (942) 
1

>  <reference_id>  (942) 
107

>  <inspiration_ids>  (942) 
[107, 187]

>  <energy_score>  (942) 
144.72021506132268

>  <distance_score>  (942) 
10.446719076213057

>  <path>  (942) 
/opt/xchem-fragalysis-2/maxwin/BulkDock/SCRATCH/511016/C16171-P107/C16171-P107.minimised.mol

>  <scratch_subdir>  (942) 
/opt/xchem-fragalysis-2/maxwin/BulkDock/SCRATCH/511016/C16171-P107

>  <fragmenstein_runtime>  (942) 
17.16356325149536

>  <fragmenstein_outcome>  (942) 
too moved

>  <fragmenstein_mode>  (942) 
expansion

>  <fragmenstein_error>  (942) 


$$$$
C16171-P187
     RDKit          3D

 40 42  0  0  0  0  0  0  0  0999 V2000
   -8.1778  -14.7902   25.8320 C   0  0  0  0  0  0  0  0  0  0  0  0
   -8.1493  -14.2618   27.1828 C   0  0  0  0  0  0  0  0  0  0  0  0
   -6.7209  -12.9436   26.9253 C   0  0  0  0  0  0  0  0  0  0  0  0
   -5.2837  -12.1990   27.8421 N   0  0  0  0  0  0  0  0  0  0  0  0
   -3.6154  -12.2793   27.5276 C   0  0  0  0  0  0  0  0  0  0  0  0
   -3.0118  -12.7570   26.5708 O   0  0  0  0  0  0  0  0  0  0  0  0
   -2.6863  -11.7710   28.7350 C   0  0  0  0  0  0  0  0  0  0  0  0
   -1.4731  -10.8315   29.1181 C   0  0  0  0  0  0  0  0  0  0  0  0
   -0.3258  -10.5345   28.4902 C   0  0  0  0  0  0  0  0  0  0  0  0
    0.2685   -9.3030   28.9876 C   0  0  0  0  0  0  0  0  0  0  0  0
   -0.3477   -8.6316   29.9413 N   0  0  0  0  0  0  0  0  0  0  0  0
   -1.2545   -9.7953   30.6589 S   0  0  0  0  0  0  0  0  0  0  0  0
   -8.5524  -15.9685   27.4750 N   0  0  0  0  0  0  0  0  0  0  0  0
   -9.7028  -16.8135   26.9687 C   0  0  0  0  0  0  0  0  0  0  0  0
  -10.5780  -16.5539   26.1770 O   0  0  0  0  0  0  0  0  0  0  0  0
   -9.9515  -18.4129   27.7045 C   0  0  0  0  0  0  0  0  0  0  0  0
  -11.8492  -18.1991   28.4569 C   0  0  0  0  0  0  0  0  0  0  0  0
  -12.7217  -19.2991   28.8079 N   0  0  0  0  0  0  0  0  0  0  0  0
  -12.3066  -20.7855   28.8898 C   0  0  0  0  0  0  0  0  0  0  0  0
  -12.9735  -21.8258   29.3330 N   0  0  0  0  0  0  0  0  0  0  0  0
  -12.3758  -22.8980   28.7501 C   0  0  0  0  0  0  0  0  0  0  0  0
  -11.2515  -22.5224   28.0483 C   0  0  0  0  0  0  0  0  0  0  0  0
  -10.9860  -21.2008   28.4238 N   0  0  0  0  0  0  0  0  0  0  0  0
   -9.6756  -19.9821   27.9335 C   0  0  0  0  0  0  0  0  0  0  0  0
   -7.4048  -14.4826   25.2093 H   0  0  0  0  0  0  0  0  0  0  0  0
   -9.1699  -14.5649   25.7226 H   0  0  0  0  0  0  0  0  0  0  0  0
   -8.3070  -15.7941   25.4900 H   0  0  0  0  0  0  0  0  0  0  0  0
   -9.0635  -13.7479   27.4750 H   0  0  0  0  0  0  0  0  0  0  0  0
   -6.9666  -12.2274   26.1521 H   0  0  0  0  0  0  0  0  0  0  0  0
   -7.0124  -12.9493   27.9377 H   0  0  0  0  0  0  0  0  0  0  0  0
   -5.4466  -11.6664   28.6811 H   0  0  0  0  0  0  0  0  0  0  0  0
   -3.3337  -11.9173   29.5801 H   0  0  0  0  0  0  0  0  0  0  0  0
   -2.1065  -12.7067   28.7367 H   0  0  0  0  0  0  0  0  0  0  0  0
   -0.0757  -11.1662   27.6476 H   0  0  0  0  0  0  0  0  0  0  0  0
    1.1832   -8.8458   28.6484 H   0  0  0  0  0  0  0  0  0  0  0  0
   -7.9644  -16.5315   28.0701 H   0  0  0  0  0  0  0  0  0  0  0  0
  -12.2997  -17.1978   28.2731 H   0  0  0  0  0  0  0  0  0  0  0  0
  -12.8136  -23.8856   28.8194 H   0  0  0  0  0  0  0  0  0  0  0  0
  -10.6124  -23.1098   27.4135 H   0  0  0  0  0  0  0  0  0  0  0  0
   -8.7017  -20.7749   27.4369 H   0  0  0  0  0  0  0  0  0  0  0  0
  1  2  1  0
  2  3  1  0
  3  4  1  0
  4  5  1  0
  5  6  2  0
  5  7  1  0
  7  8  1  0
  8  9  2  0
  9 10  1  0
 10 11  2  0
 11 12  1  0
  2 13  1  0
 13 14  1  0
 14 15  2  0
 14 16  1  0
 16 17  1  0
 17 18  2  0
 18 19  1  0
 19 20  2  0
 20 21  1  0
 21 22  2  0
 22 23  1  0
 23 24  1  0
 12  8  1  0
 24 16  2  0
 23 19  1  0
  1 25  1  0
  1 26  1  0
  1 27  1  0
  2 28  1  0
  3 29  1  0
  3 30  1  0
  4 31  1  0
  7 32  1  0
  7 33  1  0
  9 34  1  0
 10 35  1  0
 13 36  1  0
 17 37  1  0
 21 38  1  0
 22 39  1  0
 24 40  1  0
M  END
>  <Energy>  (943) 
642.89707848888168

>  <compound_id>  (943) 
16171

>  <target_id>  (943) 
1

>  <reference_id>  (943) 
187

>  <inspiration_ids>  (943) 
[107, 187]

>  <energy_score>  (943) 
579.7667389031692

>  <distance_score>  (943) 
9.18569956771638

>  <path>  (943) 
/opt/xchem-fragalysis-2/maxwin/BulkDock/SCRATCH/511016/C16171-P187/C16171-P187.minimised.mol

>  <scratch_subdir>  (943) 
/opt/xchem-fragalysis-2/maxwin/BulkDock/SCRATCH/511016/C16171-P187

>  <fragmenstein_runtime>  (943) 
21.456423044204712

>  <fragmenstein_outcome>  (943) 
too moved

>  <fragmenstein_mode>  (943) 
expansion

>  <fragmenstein_error>  (943) 


$$$$
C16174-P107
     RDKit          3D

 37 39  0  0  0  0  0  0  0  0999 V2000
   -5.8819  -11.4626   31.2760 C   0  0  0  0  0  0  0  0  0  0  0  0
   -5.3759  -13.1105   30.3130 C   0  0  0  0  0  0  0  0  0  0  0  0
   -3.6998  -12.4085   29.7502 C   0  0  0  0  0  0  0  0  0  0  0  0
   -3.0185  -11.1176   30.6647 N   0  0  0  0  0  0  0  0  0  0  0  0
   -1.8006  -10.3440   30.4749 C   0  0  0  0  0  0  0  0  0  0  0  0
   -0.9181  -10.4621   29.6763 O   0  0  0  0  0  0  0  0  0  0  0  0
   -1.7625   -9.0835   31.4658 C   0  0  0  0  0  0  0  0  0  0  0  0
   -2.1353   -8.7492   32.7519 C   0  0  0  0  0  0  0  0  0  0  0  0
   -1.6925   -7.4221   33.0841 C   0  0  0  0  0  0  0  0  0  0  0  0
   -1.2148   -6.6679   32.1081 N   0  0  0  0  0  0  0  0  0  0  0  0
   -1.0246   -7.6131   30.7737 S   0  0  0  0  0  0  0  0  0  0  0  0
   -6.4734  -14.4162   31.2750 N   0  0  0  0  0  0  0  0  0  0  0  0
   -5.9988  -15.9763   32.3016 C   0  0  0  0  0  0  0  0  0  0  0  0
   -4.9187  -16.5232   32.4685 O   0  0  0  0  0  0  0  0  0  0  0  0
   -7.2973  -16.6629   33.3100 C   0  0  0  0  0  0  0  0  0  0  0  0
   -7.0171  -15.9515   34.6699 C   0  0  0  0  0  0  0  0  0  0  0  0
   -7.5207  -15.9329   35.8679 N   0  0  0  0  0  0  0  0  0  0  0  0
   -8.7530  -16.4502   35.9088 C   0  0  0  0  0  0  0  0  0  0  0  0
   -9.7054  -16.2804   36.7991 N   0  0  0  0  0  0  0  0  0  0  0  0
  -10.7831  -16.9380   36.2986 C   0  0  0  0  0  0  0  0  0  0  0  0
  -10.4618  -17.5227   35.1030 C   0  0  0  0  0  0  0  0  0  0  0  0
   -9.1460  -17.1864   34.8240 N   0  0  0  0  0  0  0  0  0  0  0  0
   -8.1770  -17.5595   33.8298 C   0  0  0  0  0  0  0  0  0  0  0  0
   -6.2751  -10.6432   30.6413 H   0  0  0  0  0  0  0  0  0  0  0  0
   -5.1970  -10.9359   31.9059 H   0  0  0  0  0  0  0  0  0  0  0  0
   -6.7379  -11.7020   31.8942 H   0  0  0  0  0  0  0  0  0  0  0  0
   -4.8100  -12.8993   31.1196 H   0  0  0  0  0  0  0  0  0  0  0  0
   -3.7771  -12.0470   28.7385 H   0  0  0  0  0  0  0  0  0  0  0  0
   -2.9741  -13.1864   29.6790 H   0  0  0  0  0  0  0  0  0  0  0  0
   -3.5528  -10.7080   31.4065 H   0  0  0  0  0  0  0  0  0  0  0  0
   -2.5747   -9.4121   33.4734 H   0  0  0  0  0  0  0  0  0  0  0  0
   -1.7625   -6.9581   34.0607 H   0  0  0  0  0  0  0  0  0  0  0  0
   -7.4358  -14.1827   31.3948 H   0  0  0  0  0  0  0  0  0  0  0  0
   -6.1818  -15.2801   34.5878 H   0  0  0  0  0  0  0  0  0  0  0  0
  -11.7181  -16.9977   36.8388 H   0  0  0  0  0  0  0  0  0  0  0  0
  -11.0341  -18.2123   34.5070 H   0  0  0  0  0  0  0  0  0  0  0  0
   -8.2887  -18.5755   33.4845 H   0  0  0  0  0  0  0  0  0  0  0  0
  1  2  1  0
  2  3  1  0
  3  4  1  0
  4  5  1  0
  5  6  2  0
  5  7  1  0
  7  8  2  0
  8  9  1  0
  9 10  2  0
 10 11  1  0
  2 12  1  0
 12 13  1  0
 13 14  2  0
 13 15  1  0
 15 16  1  0
 16 17  2  0
 17 18  1  0
 18 19  2  0
 19 20  1  0
 20 21  2  0
 21 22  1  0
 22 23  1  0
 11  7  1  0
 23 15  2  0
 22 18  1  0
  1 24  1  0
  1 25  1  0
  1 26  1  0
  2 27  1  0
  3 28  1  0
  3 29  1  0
  4 30  1  0
  8 31  1  0
  9 32  1  0
 12 33  1  0
 16 34  1  0
 20 35  1  0
 21 36  1  0
 23 37  1  0
M  END
>  <Energy>  (944) 
442.11913754391344

>  <compound_id>  (944) 
16174

>  <target_id>  (944) 
1

>  <reference_id>  (944) 
107

>  <inspiration_ids>  (944) 
[107, 187]

>  <energy_score>  (944) 
402.2315220208129

>  <distance_score>  (944) 
8.74750545477706

>  <path>  (944) 
/opt/xchem-fragalysis-2/maxwin/BulkDock/SCRATCH/511016/C16174-P107/C16174-P107.minimised.mol

>  <scratch_subdir>  (944) 
/opt/xchem-fragalysis-2/maxwin/BulkDock/SCRATCH/511016/C16174-P107

>  <fragmenstein_runtime>  (944) 
14.341386318206787

>  <fragmenstein_outcome>  (944) 
too moved

>  <fragmenstein_mode>  (944) 
expansion

>  <fragmenstein_error>  (944) 


$$$$
C16174-P187
     RDKit          3D

 37 39  0  0  0  0  0  0  0  0999 V2000
   -1.7148  -15.3094   29.3241 C   0  0  0  0  0  0  0  0  0  0  0  0
   -2.5405  -14.2592   30.1180 C   0  0  0  0  0  0  0  0  0  0  0  0
   -2.4342  -12.4001   29.3169 C   0  0  0  0  0  0  0  0  0  0  0  0
   -1.4610  -10.9235   30.0811 N   0  0  0  0  0  0  0  0  0  0  0  0
   -0.7531   -9.7762   29.4429 C   0  0  0  0  0  0  0  0  0  0  0  0
   -0.5408   -9.5351   28.2916 O   0  0  0  0  0  0  0  0  0  0  0  0
   -0.3333   -8.6918   30.3872 C   0  0  0  0  0  0  0  0  0  0  0  0
    0.4652   -7.5808   30.1504 C   0  0  0  0  0  0  0  0  0  0  0  0
    0.2470   -6.5324   31.0860 C   0  0  0  0  0  0  0  0  0  0  0  0
   -0.6526   -6.7746   32.0266 N   0  0  0  0  0  0  0  0  0  0  0  0
   -1.2779   -8.2836   31.7714 S   0  0  0  0  0  0  0  0  0  0  0  0
   -3.8936  -14.5131   30.2000 N   0  0  0  0  0  0  0  0  0  0  0  0
   -4.5986  -15.5681   30.7401 C   0  0  0  0  0  0  0  0  0  0  0  0
   -4.2360  -16.5016   31.3523 O   0  0  0  0  0  0  0  0  0  0  0  0
   -6.2471  -15.1587   30.1079 C   0  0  0  0  0  0  0  0  0  0  0  0
   -6.4241  -16.4591   29.2887 C   0  0  0  0  0  0  0  0  0  0  0  0
   -7.3831  -16.9977   28.3252 N   0  0  0  0  0  0  0  0  0  0  0  0
   -8.3159  -16.1754   27.7732 C   0  0  0  0  0  0  0  0  0  0  0  0
   -9.2245  -16.3430   26.8253 N   0  0  0  0  0  0  0  0  0  0  0  0
   -9.6520  -15.1091   26.5037 C   0  0  0  0  0  0  0  0  0  0  0  0
   -8.9950  -14.1733   27.2659 C   0  0  0  0  0  0  0  0  0  0  0  0
   -8.1550  -14.7485   28.1814 N   0  0  0  0  0  0  0  0  0  0  0  0
   -6.9768  -14.3277   29.1880 C   0  0  0  0  0  0  0  0  0  0  0  0
   -2.1595  -15.6093   28.3731 H   0  0  0  0  0  0  0  0  0  0  0  0
   -1.6447  -16.2270   29.9195 H   0  0  0  0  0  0  0  0  0  0  0  0
   -0.6886  -14.9946   29.1138 H   0  0  0  0  0  0  0  0  0  0  0  0
   -2.3503  -14.3978   31.1999 H   0  0  0  0  0  0  0  0  0  0  0  0
   -3.4436  -12.0448   29.5097 H   0  0  0  0  0  0  0  0  0  0  0  0
   -2.4846  -12.3479   28.2299 H   0  0  0  0  0  0  0  0  0  0  0  0
   -1.3777  -10.8436   31.0887 H   0  0  0  0  0  0  0  0  0  0  0  0
    1.1514   -7.5050   29.3245 H   0  0  0  0  0  0  0  0  0  0  0  0
    0.7377   -5.5666   31.0953 H   0  0  0  0  0  0  0  0  0  0  0  0
   -4.5496  -13.8426   29.8135 H   0  0  0  0  0  0  0  0  0  0  0  0
   -5.7469  -17.1201   29.7292 H   0  0  0  0  0  0  0  0  0  0  0  0
  -10.3915  -14.9496   25.7312 H   0  0  0  0  0  0  0  0  0  0  0  0
   -9.0893  -13.1413   27.1895 H   0  0  0  0  0  0  0  0  0  0  0  0
   -6.6727  -13.4052   28.7992 H   0  0  0  0  0  0  0  0  0  0  0  0
  1  2  1  0
  2  3  1  0
  3  4  1  0
  4  5  1  0
  5  6  2  0
  5  7  1  0
  7  8  2  0
  8  9  1  0
  9 10  2  0
 10 11  1  0
  2 12  1  0
 12 13  1  0
 13 14  2  0
 13 15  1  0
 15 16  1  0
 16 17  2  0
 17 18  1  0
 18 19  2  0
 19 20  1  0
 20 21  2  0
 21 22  1  0
 22 23  1  0
 11  7  1  0
 23 15  2  0
 22 18  1  0
  1 24  1  0
  1 25  1  0
  1 26  1  0
  2 27  1  0
  3 28  1  0
  3 29  1  0
  4 30  1  0
  8 31  1  0
  9 32  1  0
 12 33  1  0
 16 34  1  0
 20 35  1  0
 21 36  1  0
 23 37  1  0
M  END
>  <Energy>  (945) 
279.49258565242337

>  <compound_id>  (945) 
16174

>  <target_id>  (945) 
1

>  <reference_id>  (945) 
187

>  <inspiration_ids>  (945) 
[107, 187]

>  <energy_score>  (945) 
239.6049701293266

>  <distance_score>  (945) 
9.213285051159799

>  <path>  (945) 
/opt/xchem-fragalysis-2/maxwin/BulkDock/SCRATCH/511016/C16174-P187/C16174-P187.minimised.mol

>  <scratch_subdir>  (945) 
/opt/xchem-fragalysis-2/maxwin/BulkDock/SCRATCH/511016/C16174-P187

>  <fragmenstein_runtime>  (945) 
16.502280473709106

>  <fragmenstein_outcome>  (945) 
too moved

>  <fragmenstein_mode>  (945) 
expansion

>  <fragmenstein_error>  (945) 


$$$$
C16175-P107
     RDKit          3D

 38 41  0  0  0  0  0  0  0  0999 V2000
  -10.1408  -19.6312   32.5730 C   0  0  0  0  0  0  0  0  0  0  0  0
   -9.7490  -18.1269   33.5332 C   0  0  0  0  0  0  0  0  0  0  0  0
   -9.9481  -16.4304   32.8402 C   0  0  0  0  0  0  0  0  0  0  0  0
  -11.0323  -16.2480   31.2115 C   0  0  0  0  0  0  0  0  0  0  0  0
  -11.1137  -14.7520   31.7688 C   0  0  0  0  0  0  0  0  0  0  0  0
  -12.2625  -14.2645   32.3843 N   0  0  0  0  0  0  0  0  0  0  0  0
  -11.9219  -13.2365   33.1509 C   0  0  0  0  0  0  0  0  0  0  0  0
  -12.7588  -12.3915   33.8310 N   0  0  0  0  0  0  0  0  0  0  0  0
  -12.2746  -11.2467   34.2001 C   0  0  0  0  0  0  0  0  0  0  0  0
  -10.8985  -10.7579   33.9980 C   0  0  0  0  0  0  0  0  0  0  0  0
  -10.0827  -11.6610   33.4519 C   0  0  0  0  0  0  0  0  0  0  0  0
  -10.5483  -12.9335   33.0928 N   0  0  0  0  0  0  0  0  0  0  0  0
   -9.8529  -14.0080   32.4466 C   0  0  0  0  0  0  0  0  0  0  0  0
   -7.9106  -14.1220   32.4615 C   0  0  0  0  0  0  0  0  0  0  0  0
   -6.7102  -12.8080   31.7695 N   0  0  0  0  0  0  0  0  0  0  0  0
   -5.8242  -11.1385   31.6510 C   0  0  0  0  0  0  0  0  0  0  0  0
   -4.6134   -9.8594   32.4865 C   0  0  0  0  0  0  0  0  0  0  0  0
   -4.5470   -9.2769   33.8098 C   0  0  0  0  0  0  0  0  0  0  0  0
   -3.2680   -8.7516   34.2241 C   0  0  0  0  0  0  0  0  0  0  0  0
   -2.3690   -8.6313   33.2731 N   0  0  0  0  0  0  0  0  0  0  0  0
   -3.0057   -9.2329   31.9029 S   0  0  0  0  0  0  0  0  0  0  0  0
  -10.7840  -17.7842   29.8796 C   0  0  0  0  0  0  0  0  0  0  0  0
  -10.5014  -19.7216   30.7922 C   0  0  0  0  0  0  0  0  0  0  0  0
  -10.8565  -20.2975   33.0808 H   0  0  0  0  0  0  0  0  0  0  0  0
  -10.2266  -18.0501   34.5273 H   0  0  0  0  0  0  0  0  0  0  0  0
  -10.2106  -15.7781   33.6949 H   0  0  0  0  0  0  0  0  0  0  0  0
  -12.9420  -10.5474   34.7310 H   0  0  0  0  0  0  0  0  0  0  0  0
  -10.6254   -9.7579   34.2882 H   0  0  0  0  0  0  0  0  0  0  0  0
   -9.0491  -11.4541   33.2365 H   0  0  0  0  0  0  0  0  0  0  0  0
   -7.9316  -14.5332   31.4827 H   0  0  0  0  0  0  0  0  0  0  0  0
   -7.5836  -15.0469   32.9821 H   0  0  0  0  0  0  0  0  0  0  0  0
   -6.2375  -13.3669   31.0361 H   0  0  0  0  0  0  0  0  0  0  0  0
   -4.9997  -11.6617   31.1772 H   0  0  0  0  0  0  0  0  0  0  0  0
   -6.2559  -10.9898   32.5913 H   0  0  0  0  0  0  0  0  0  0  0  0
   -5.2437   -9.4946   34.5868 H   0  0  0  0  0  0  0  0  0  0  0  0
   -3.0024   -8.4433   35.2284 H   0  0  0  0  0  0  0  0  0  0  0  0
  -11.5320  -17.7261   28.9897 H   0  0  0  0  0  0  0  0  0  0  0  0
  -10.8811  -20.6602   30.3309 H   0  0  0  0  0  0  0  0  0  0  0  0
  1  2  2  0
  2  3  1  0
  3  4  2  0
  4  5  1  0
  5  6  1  0
  6  7  2  0
  7  8  1  0
  8  9  2  0
  9 10  1  0
 10 11  2  0
 11 12  1  0
 12 13  1  0
 13 14  1  0
 14 15  1  0
 15 16  1  0
 16 17  1  0
 17 18  2  0
 18 19  1  0
 19 20  2  0
 20 21  1  0
  4 22  1  0
 22 23  2  0
 23  1  1  0
 13  5  2  0
 21 17  1  0
 12  7  1  0
  1 24  1  0
  2 25  1  0
  3 26  1  0
  9 27  1  0
 10 28  1  0
 11 29  1  0
 14 30  1  0
 14 31  1  0
 15 32  1  0
 16 33  1  0
 16 34  1  0
 18 35  1  0
 19 36  1  0
 22 37  1  0
 23 38  1  0
M  END
>  <Energy>  (946) 
1128.8117102100557

>  <compound_id>  (946) 
16175

>  <target_id>  (946) 
1

>  <reference_id>  (946) 
107

>  <inspiration_ids>  (946) 
[107, 187]

>  <energy_score>  (946) 
1065.5867085187033

>  <distance_score>  (946) 
9.560949742306954

>  <path>  (946) 
/opt/xchem-fragalysis-2/maxwin/BulkDock/SCRATCH/511016/C16175-P107/C16175-P107.minimised.mol

>  <scratch_subdir>  (946) 
/opt/xchem-fragalysis-2/maxwin/BulkDock/SCRATCH/511016/C16175-P107

>  <fragmenstein_runtime>  (946) 
18.67571520805359

>  <fragmenstein_outcome>  (946) 
too moved

>  <fragmenstein_mode>  (946) 
expansion

>  <fragmenstein_error>  (946) 


$$$$
C16175-P187
     RDKit          3D

 38 41  0  0  0  0  0  0  0  0999 V2000
  -11.0101  -11.9292   33.1981 C   0  0  0  0  0  0  0  0  0  0  0  0
  -10.5628  -10.9157   32.4155 C   0  0  0  0  0  0  0  0  0  0  0  0
   -9.1683  -10.9138   32.0249 C   0  0  0  0  0  0  0  0  0  0  0  0
   -7.8173  -11.7301   32.6292 C   0  0  0  0  0  0  0  0  0  0  0  0
   -6.0153  -11.0249   32.7425 C   0  0  0  0  0  0  0  0  0  0  0  0
   -5.3267  -10.4501   34.0813 N   0  0  0  0  0  0  0  0  0  0  0  0
   -4.6803   -9.1629   34.0641 C   0  0  0  0  0  0  0  0  0  0  0  0
   -3.7669   -8.7529   35.0209 N   0  0  0  0  0  0  0  0  0  0  0  0
   -2.5937   -8.3402   34.6280 C   0  0  0  0  0  0  0  0  0  0  0  0
   -2.0807   -8.1884   33.2134 C   0  0  0  0  0  0  0  0  0  0  0  0
   -2.9932   -8.3213   32.2258 C   0  0  0  0  0  0  0  0  0  0  0  0
   -4.5281   -8.6932   32.5463 N   0  0  0  0  0  0  0  0  0  0  0  0
   -5.3211   -9.8354   31.5963 C   0  0  0  0  0  0  0  0  0  0  0  0
   -6.0055   -8.6555   30.0895 C   0  0  0  0  0  0  0  0  0  0  0  0
   -4.8418   -7.7746   28.7882 N   0  0  0  0  0  0  0  0  0  0  0  0
   -2.9437   -7.3836   28.6466 C   0  0  0  0  0  0  0  0  0  0  0  0
   -1.4938   -7.5503   29.5589 C   0  0  0  0  0  0  0  0  0  0  0  0
   -0.6239   -8.6289   29.5590 C   0  0  0  0  0  0  0  0  0  0  0  0
    0.6757   -8.1762   29.6957 C   0  0  0  0  0  0  0  0  0  0  0  0
    0.8948   -6.9433   30.1116 N   0  0  0  0  0  0  0  0  0  0  0  0
   -0.5647   -6.2630   30.3824 S   0  0  0  0  0  0  0  0  0  0  0  0
   -8.5781  -12.7254   33.1494 C   0  0  0  0  0  0  0  0  0  0  0  0
  -10.0670  -12.8979   33.3998 C   0  0  0  0  0  0  0  0  0  0  0  0
  -12.0537  -12.0648   33.4485 H   0  0  0  0  0  0  0  0  0  0  0  0
  -11.2453  -10.1889   31.9837 H   0  0  0  0  0  0  0  0  0  0  0  0
   -9.0557  -10.2017   31.1952 H   0  0  0  0  0  0  0  0  0  0  0  0
   -1.8650   -8.0434   35.4022 H   0  0  0  0  0  0  0  0  0  0  0  0
   -1.0417   -7.9364   33.0721 H   0  0  0  0  0  0  0  0  0  0  0  0
   -2.8409   -8.1711   31.2127 H   0  0  0  0  0  0  0  0  0  0  0  0
   -6.6624   -9.3006   29.4726 H   0  0  0  0  0  0  0  0  0  0  0  0
   -6.7382   -7.9018   30.4409 H   0  0  0  0  0  0  0  0  0  0  0  0
   -5.1240   -8.2858   27.9352 H   0  0  0  0  0  0  0  0  0  0  0  0
   -2.4615   -6.4929   28.1900 H   0  0  0  0  0  0  0  0  0  0  0  0
   -2.9064   -7.5266   27.5449 H   0  0  0  0  0  0  0  0  0  0  0  0
   -0.8123   -9.6158   29.1764 H   0  0  0  0  0  0  0  0  0  0  0  0
    1.4822   -8.8032   29.3697 H   0  0  0  0  0  0  0  0  0  0  0  0
   -8.1773  -13.6811   33.1468 H   0  0  0  0  0  0  0  0  0  0  0  0
  -10.4031  -13.8761   33.7583 H   0  0  0  0  0  0  0  0  0  0  0  0
  1  2  2  0
  2  3  1  0
  3  4  2  0
  4  5  1  0
  5  6  1  0
  6  7  2  0
  7  8  1  0
  8  9  2  0
  9 10  1  0
 10 11  2  0
 11 12  1  0
 12 13  1  0
 13 14  1  0
 14 15  1  0
 15 16  1  0
 16 17  1  0
 17 18  2  0
 18 19  1  0
 19 20  2  0
 20 21  1  0
  4 22  1  0
 22 23  2  0
 23  1  1  0
 13  5  2  0
 21 17  1  0
 12  7  1  0
  1 24  1  0
  2 25  1  0
  3 26  1  0
  9 27  1  0
 10 28  1  0
 11 29  1  0
 14 30  1  0
 14 31  1  0
 15 32  1  0
 16 33  1  0
 16 34  1  0
 18 35  1  0
 19 36  1  0
 22 37  1  0
 23 38  1  0
M  END
>  <Energy>  (947) 
672.95311452441376

>  <compound_id>  (947) 
16175

>  <target_id>  (947) 
1

>  <reference_id>  (947) 
187

>  <inspiration_ids>  (947) 
[107, 187]

>  <energy_score>  (947) 
609.7281128330511

>  <distance_score>  (947) 
9.21776190234469

>  <path>  (947) 
/opt/xchem-fragalysis-2/maxwin/BulkDock/SCRATCH/511016/C16175-P187/C16175-P187.minimised.mol

>  <scratch_subdir>  (947) 
/opt/xchem-fragalysis-2/maxwin/BulkDock/SCRATCH/511016/C16175-P187

>  <fragmenstein_runtime>  (947) 
14.718550443649292

>  <fragmenstein_outcome>  (947) 
too moved

>  <fragmenstein_mode>  (947) 
expansion

>  <fragmenstein_error>  (947) 


$$$$
C16175-P107
     RDKit          3D

 38 41  0  0  0  0  0  0  0  0999 V2000
  -10.1408  -19.6312   32.5730 C   0  0  0  0  0  0  0  0  0  0  0  0
   -9.7490  -18.1269   33.5332 C   0  0  0  0  0  0  0  0  0  0  0  0
   -9.9481  -16.4304   32.8402 C   0  0  0  0  0  0  0  0  0  0  0  0
  -11.0323  -16.2480   31.2115 C   0  0  0  0  0  0  0  0  0  0  0  0
  -11.1137  -14.7520   31.7688 C   0  0  0  0  0  0  0  0  0  0  0  0
  -12.2625  -14.2645   32.3843 N   0  0  0  0  0  0  0  0  0  0  0  0
  -11.9219  -13.2365   33.1509 C   0  0  0  0  0  0  0  0  0  0  0  0
  -12.7588  -12.3915   33.8310 N   0  0  0  0  0  0  0  0  0  0  0  0
  -12.2746  -11.2467   34.2001 C   0  0  0  0  0  0  0  0  0  0  0  0
  -10.8985  -10.7579   33.9980 C   0  0  0  0  0  0  0  0  0  0  0  0
  -10.0827  -11.6610   33.4519 C   0  0  0  0  0  0  0  0  0  0  0  0
  -10.5483  -12.9335   33.0928 N   0  0  0  0  0  0  0  0  0  0  0  0
   -9.8529  -14.0080   32.4466 C   0  0  0  0  0  0  0  0  0  0  0  0
   -7.9106  -14.1220   32.4615 C   0  0  0  0  0  0  0  0  0  0  0  0
   -6.7102  -12.8080   31.7695 N   0  0  0  0  0  0  0  0  0  0  0  0
   -5.8242  -11.1385   31.6510 C   0  0  0  0  0  0  0  0  0  0  0  0
   -4.6134   -9.8594   32.4865 C   0  0  0  0  0  0  0  0  0  0  0  0
   -4.5470   -9.2769   33.8098 C   0  0  0  0  0  0  0  0  0  0  0  0
   -3.2680   -8.7516   34.2241 C   0  0  0  0  0  0  0  0  0  0  0  0
   -2.3690   -8.6313   33.2731 N   0  0  0  0  0  0  0  0  0  0  0  0
   -3.0057   -9.2329   31.9029 S   0  0  0  0  0  0  0  0  0  0  0  0
  -10.7840  -17.7842   29.8796 C   0  0  0  0  0  0  0  0  0  0  0  0
  -10.5014  -19.7216   30.7922 C   0  0  0  0  0  0  0  0  0  0  0  0
  -10.8565  -20.2975   33.0808 H   0  0  0  0  0  0  0  0  0  0  0  0
  -10.2266  -18.0501   34.5273 H   0  0  0  0  0  0  0  0  0  0  0  0
  -10.2106  -15.7781   33.6949 H   0  0  0  0  0  0  0  0  0  0  0  0
  -12.9420  -10.5474   34.7310 H   0  0  0  0  0  0  0  0  0  0  0  0
  -10.6254   -9.7579   34.2882 H   0  0  0  0  0  0  0  0  0  0  0  0
   -9.0491  -11.4541   33.2365 H   0  0  0  0  0  0  0  0  0  0  0  0
   -7.9316  -14.5332   31.4827 H   0  0  0  0  0  0  0  0  0  0  0  0
   -7.5836  -15.0469   32.9821 H   0  0  0  0  0  0  0  0  0  0  0  0
   -6.2375  -13.3669   31.0361 H   0  0  0  0  0  0  0  0  0  0  0  0
   -4.9997  -11.6617   31.1772 H   0  0  0  0  0  0  0  0  0  0  0  0
   -6.2559  -10.9898   32.5913 H   0  0  0  0  0  0  0  0  0  0  0  0
   -5.2437   -9.4946   34.5868 H   0  0  0  0  0  0  0  0  0  0  0  0
   -3.0024   -8.4433   35.2284 H   0  0  0  0  0  0  0  0  0  0  0  0
  -11.5320  -17.7261   28.9897 H   0  0  0  0  0  0  0  0  0  0  0  0
  -10.8811  -20.6602   30.3309 H   0  0  0  0  0  0  0  0  0  0  0  0
  1  2  2  0
  2  3  1  0
  3  4  2  0
  4  5  1  0
  5  6  1  0
  6  7  2  0
  7  8  1  0
  8  9  2  0
  9 10  1  0
 10 11  2  0
 11 12  1  0
 12 13  1  0
 13 14  1  0
 14 15  1  0
 15 16  1  0
 16 17  1  0
 17 18  2  0
 18 19  1  0
 19 20  2  0
 20 21  1  0
  4 22  1  0
 22 23  2  0
 23  1  1  0
 13  5  2  0
 21 17  1  0
 12  7  1  0
  1 24  1  0
  2 25  1  0
  3 26  1  0
  9 27  1  0
 10 28  1  0
 11 29  1  0
 14 30  1  0
 14 31  1  0
 15 32  1  0
 16 33  1  0
 16 34  1  0
 18 35  1  0
 19 36  1  0
 22 37  1  0
 23 38  1  0
M  END
>  <Energy>  (948) 
1128.8117102100557

>  <compound_id>  (948) 
16175

>  <target_id>  (948) 
1

>  <reference_id>  (948) 
107

>  <inspiration_ids>  (948) 
[107, 187]

>  <energy_score>  (948) 
1065.5867085187033

>  <distance_score>  (948) 
9.560949742306954

>  <path>  (948) 
/opt/xchem-fragalysis-2/maxwin/BulkDock/SCRATCH/511016/C16175-P107/C16175-P107.minimised.mol

>  <scratch_subdir>  (948) 
/opt/xchem-fragalysis-2/maxwin/BulkDock/SCRATCH/511016/C16175-P107

>  <fragmenstein_runtime>  (948) 
18.842387914657593

>  <fragmenstein_outcome>  (948) 
too moved

>  <fragmenstein_mode>  (948) 
expansion

>  <fragmenstein_error>  (948) 


$$$$
C16175-P187
     RDKit          3D

 38 41  0  0  0  0  0  0  0  0999 V2000
  -11.0101  -11.9292   33.1981 C   0  0  0  0  0  0  0  0  0  0  0  0
  -10.5628  -10.9157   32.4155 C   0  0  0  0  0  0  0  0  0  0  0  0
   -9.1683  -10.9138   32.0249 C   0  0  0  0  0  0  0  0  0  0  0  0
   -7.8173  -11.7301   32.6292 C   0  0  0  0  0  0  0  0  0  0  0  0
   -6.0153  -11.0249   32.7425 C   0  0  0  0  0  0  0  0  0  0  0  0
   -5.3267  -10.4501   34.0813 N   0  0  0  0  0  0  0  0  0  0  0  0
   -4.6803   -9.1629   34.0641 C   0  0  0  0  0  0  0  0  0  0  0  0
   -3.7669   -8.7529   35.0209 N   0  0  0  0  0  0  0  0  0  0  0  0
   -2.5937   -8.3402   34.6280 C   0  0  0  0  0  0  0  0  0  0  0  0
   -2.0807   -8.1884   33.2134 C   0  0  0  0  0  0  0  0  0  0  0  0
   -2.9932   -8.3213   32.2258 C   0  0  0  0  0  0  0  0  0  0  0  0
   -4.5281   -8.6932   32.5463 N   0  0  0  0  0  0  0  0  0  0  0  0
   -5.3211   -9.8354   31.5963 C   0  0  0  0  0  0  0  0  0  0  0  0
   -6.0055   -8.6555   30.0895 C   0  0  0  0  0  0  0  0  0  0  0  0
   -4.8418   -7.7746   28.7882 N   0  0  0  0  0  0  0  0  0  0  0  0
   -2.9437   -7.3836   28.6466 C   0  0  0  0  0  0  0  0  0  0  0  0
   -1.4938   -7.5503   29.5589 C   0  0  0  0  0  0  0  0  0  0  0  0
   -0.6239   -8.6289   29.5590 C   0  0  0  0  0  0  0  0  0  0  0  0
    0.6757   -8.1762   29.6957 C   0  0  0  0  0  0  0  0  0  0  0  0
    0.8948   -6.9433   30.1116 N   0  0  0  0  0  0  0  0  0  0  0  0
   -0.5647   -6.2630   30.3824 S   0  0  0  0  0  0  0  0  0  0  0  0
   -8.5781  -12.7254   33.1494 C   0  0  0  0  0  0  0  0  0  0  0  0
  -10.0670  -12.8979   33.3998 C   0  0  0  0  0  0  0  0  0  0  0  0
  -12.0537  -12.0648   33.4485 H   0  0  0  0  0  0  0  0  0  0  0  0
  -11.2453  -10.1889   31.9837 H   0  0  0  0  0  0  0  0  0  0  0  0
   -9.0557  -10.2017   31.1952 H   0  0  0  0  0  0  0  0  0  0  0  0
   -1.8650   -8.0434   35.4022 H   0  0  0  0  0  0  0  0  0  0  0  0
   -1.0417   -7.9364   33.0721 H   0  0  0  0  0  0  0  0  0  0  0  0
   -2.8409   -8.1711   31.2127 H   0  0  0  0  0  0  0  0  0  0  0  0
   -6.6624   -9.3006   29.4726 H   0  0  0  0  0  0  0  0  0  0  0  0
   -6.7382   -7.9018   30.4409 H   0  0  0  0  0  0  0  0  0  0  0  0
   -5.1240   -8.2858   27.9352 H   0  0  0  0  0  0  0  0  0  0  0  0
   -2.4615   -6.4929   28.1900 H   0  0  0  0  0  0  0  0  0  0  0  0
   -2.9064   -7.5266   27.5449 H   0  0  0  0  0  0  0  0  0  0  0  0
   -0.8123   -9.6158   29.1764 H   0  0  0  0  0  0  0  0  0  0  0  0
    1.4822   -8.8032   29.3697 H   0  0  0  0  0  0  0  0  0  0  0  0
   -8.1773  -13.6811   33.1468 H   0  0  0  0  0  0  0  0  0  0  0  0
  -10.4031  -13.8761   33.7583 H   0  0  0  0  0  0  0  0  0  0  0  0
  1  2  2  0
  2  3  1  0
  3  4  2  0
  4  5  1  0
  5  6  1  0
  6  7  2  0
  7  8  1  0
  8  9  2  0
  9 10  1  0
 10 11  2  0
 11 12  1  0
 12 13  1  0
 13 14  1  0
 14 15  1  0
 15 16  1  0
 16 17  1  0
 17 18  2  0
 18 19  1  0
 19 20  2  0
 20 21  1  0
  4 22  1  0
 22 23  2  0
 23  1  1  0
 13  5  2  0
 21 17  1  0
 12  7  1  0
  1 24  1  0
  2 25  1  0
  3 26  1  0
  9 27  1  0
 10 28  1  0
 11 29  1  0
 14 30  1  0
 14 31  1  0
 15 32  1  0
 16 33  1  0
 16 34  1  0
 18 35  1  0
 19 36  1  0
 22 37  1  0
 23 38  1  0
M  END
>  <Energy>  (949) 
672.95311452441376

>  <compound_id>  (949) 
16175

>  <target_id>  (949) 
1

>  <reference_id>  (949) 
187

>  <inspiration_ids>  (949) 
[107, 187]

>  <energy_score>  (949) 
609.7281128330511

>  <distance_score>  (949) 
9.21776190234469

>  <path>  (949) 
/opt/xchem-fragalysis-2/maxwin/BulkDock/SCRATCH/511016/C16175-P187/C16175-P187.minimised.mol

>  <scratch_subdir>  (949) 
/opt/xchem-fragalysis-2/maxwin/BulkDock/SCRATCH/511016/C16175-P187

>  <fragmenstein_runtime>  (949) 
14.461852550506592

>  <fragmenstein_outcome>  (949) 
too moved

>  <fragmenstein_mode>  (949) 
expansion

>  <fragmenstein_error>  (949) 


$$$$
C16168-P107
     RDKit          3D

 34 37  0  0  0  0  0  0  0  0999 V2000
   -7.2304  -13.5452   27.5160 O   0  0  0  0  0  0  0  0  0  0  0  0
   -6.9964  -14.2668   28.4633 C   0  0  0  0  0  0  0  0  0  0  0  0
   -5.9962  -13.8735   29.8593 N   0  0  0  0  0  0  0  0  0  0  0  0
   -4.9883  -12.4260   30.2132 C   0  0  0  0  0  0  0  0  0  0  0  0
   -5.3595  -11.4141   31.3118 C   0  0  0  0  0  0  0  0  0  0  0  0
   -4.4916  -10.1210   32.0797 C   0  0  0  0  0  0  0  0  0  0  0  0
   -3.1167   -9.8690   31.7160 C   0  0  0  0  0  0  0  0  0  0  0  0
   -2.3113   -8.7543   32.2722 C   0  0  0  0  0  0  0  0  0  0  0  0
   -1.5014   -7.7762   31.6987 C   0  0  0  0  0  0  0  0  0  0  0  0
   -0.9843   -6.8816   32.6824 C   0  0  0  0  0  0  0  0  0  0  0  0
   -1.3258   -7.1297   33.9400 N   0  0  0  0  0  0  0  0  0  0  0  0
   -2.2309   -8.5097   33.9796 S   0  0  0  0  0  0  0  0  0  0  0  0
   -2.6717  -10.8579   30.6586 C   0  0  0  0  0  0  0  0  0  0  0  0
   -3.6226  -12.0695   29.9374 C   0  0  0  0  0  0  0  0  0  0  0  0
   -7.8301  -15.9599   28.2007 C   0  0  0  0  0  0  0  0  0  0  0  0
   -9.3044  -15.9283   27.9389 C   0  0  0  0  0  0  0  0  0  0  0  0
   -9.8939  -17.1449   27.8851 C   0  0  0  0  0  0  0  0  0  0  0  0
   -9.1890  -18.4781   27.7472 N   0  0  0  0  0  0  0  0  0  0  0  0
   -9.5473  -20.4158   27.7420 C   0  0  0  0  0  0  0  0  0  0  0  0
   -9.9594  -20.4501   28.9973 C   0  0  0  0  0  0  0  0  0  0  0  0
   -8.3239  -19.4199   28.7018 N   0  0  0  0  0  0  0  0  0  0  0  0
   -7.9144  -18.3503   28.0627 C   0  0  0  0  0  0  0  0  0  0  0  0
   -7.2318  -17.1777   28.2224 N   0  0  0  0  0  0  0  0  0  0  0  0
   -5.9095  -14.6839   30.4476 H   0  0  0  0  0  0  0  0  0  0  0  0
   -6.3115  -11.6222   31.7806 H   0  0  0  0  0  0  0  0  0  0  0  0
   -4.9522   -9.5831   32.9011 H   0  0  0  0  0  0  0  0  0  0  0  0
   -1.2496   -7.6717   30.6532 H   0  0  0  0  0  0  0  0  0  0  0  0
   -0.3264   -6.0406   32.4987 H   0  0  0  0  0  0  0  0  0  0  0  0
   -1.6520  -10.7867   30.2701 H   0  0  0  0  0  0  0  0  0  0  0  0
   -3.0609  -12.6240   29.2390 H   0  0  0  0  0  0  0  0  0  0  0  0
   -9.8265  -14.9931   28.0918 H   0  0  0  0  0  0  0  0  0  0  0  0
  -10.9281  -17.1787   28.1432 H   0  0  0  0  0  0  0  0  0  0  0  0
  -10.2464  -20.8233   27.0020 H   0  0  0  0  0  0  0  0  0  0  0  0
  -10.2548  -21.1016   29.8138 H   0  0  0  0  0  0  0  0  0  0  0  0
  1  2  2  0
  2  3  1  0
  3  4  1  0
  4  5  2  0
  5  6  1  0
  6  7  2  0
  7  8  1  0
  8  9  2  0
  9 10  1  0
 10 11  2  0
 11 12  1  0
  7 13  1  0
 13 14  2  0
  2 15  1  0
 15 16  1  0
 16 17  2  0
 17 18  1  0
 18 19  1  0
 19 20  2  0
 20 21  1  0
 21 22  2  0
 22 23  1  0
 14  4  1  0
 23 15  2  0
 12  8  1  0
 22 18  1  0
  3 24  1  0
  5 25  1  0
  6 26  1  0
  9 27  1  0
 10 28  1  0
 13 29  1  0
 14 30  1  0
 16 31  1  0
 17 32  1  0
 19 33  1  0
 20 34  1  0
M  END
>  <Energy>  (950) 
687.2758706811245

>  <compound_id>  (950) 
16168

>  <target_id>  (950) 
1

>  <reference_id>  (950) 
107

>  <inspiration_ids>  (950) 
[107, 187]

>  <energy_score>  (950) 
583.2321211739477

>  <distance_score>  (950) 
7.886101315085862

>  <path>  (950) 
/opt/xchem-fragalysis-2/maxwin/BulkDock/SCRATCH/511016/C16168-P107/C16168-P107.minimised.mol

>  <scratch_subdir>  (950) 
/opt/xchem-fragalysis-2/maxwin/BulkDock/SCRATCH/511016/C16168-P107

>  <fragmenstein_runtime>  (950) 
14.453263282775879

>  <fragmenstein_outcome>  (950) 
too moved

>  <fragmenstein_mode>  (950) 
expansion

>  <fragmenstein_error>  (950) 


$$$$
C16168-P187
     RDKit          3D

 34 37  0  0  0  0  0  0  0  0999 V2000
   -8.1982  -14.2013   29.2551 O   0  0  0  0  0  0  0  0  0  0  0  0
   -8.2418  -14.3738   28.1199 C   0  0  0  0  0  0  0  0  0  0  0  0
   -6.9946  -13.4043   27.1331 N   0  0  0  0  0  0  0  0  0  0  0  0
   -5.5666  -12.2649   27.6526 C   0  0  0  0  0  0  0  0  0  0  0  0
   -3.8984  -12.2893   27.1998 C   0  0  0  0  0  0  0  0  0  0  0  0
   -2.5837  -11.9292   27.8236 C   0  0  0  0  0  0  0  0  0  0  0  0
   -2.3498  -11.5991   29.1204 C   0  0  0  0  0  0  0  0  0  0  0  0
   -1.2920  -10.2760   29.8676 C   0  0  0  0  0  0  0  0  0  0  0  0
   -0.3553   -9.4021   29.2289 C   0  0  0  0  0  0  0  0  0  0  0  0
    0.0204   -8.2212   29.9388 C   0  0  0  0  0  0  0  0  0  0  0  0
   -0.6072   -7.9890   31.0642 N   0  0  0  0  0  0  0  0  0  0  0  0
   -1.5821   -9.2534   31.3532 S   0  0  0  0  0  0  0  0  0  0  0  0
   -3.5941  -11.9434   29.5065 C   0  0  0  0  0  0  0  0  0  0  0  0
   -5.0923  -12.0857   28.9563 C   0  0  0  0  0  0  0  0  0  0  0  0
   -9.6452  -15.7424   27.7224 C   0  0  0  0  0  0  0  0  0  0  0  0
  -11.2568  -15.4514   28.3428 C   0  0  0  0  0  0  0  0  0  0  0  0
  -12.2280  -16.3780   28.8665 C   0  0  0  0  0  0  0  0  0  0  0  0
  -12.1841  -17.9773   28.6981 N   0  0  0  0  0  0  0  0  0  0  0  0
  -12.9747  -19.6572   28.8169 C   0  0  0  0  0  0  0  0  0  0  0  0
  -12.0975  -20.7321   29.2419 C   0  0  0  0  0  0  0  0  0  0  0  0
  -10.9605  -19.7806   29.2665 N   0  0  0  0  0  0  0  0  0  0  0  0
  -10.8335  -18.1810   28.6387 C   0  0  0  0  0  0  0  0  0  0  0  0
   -9.6305  -17.2385   27.8879 N   0  0  0  0  0  0  0  0  0  0  0  0
   -7.1722  -13.5633   26.1643 H   0  0  0  0  0  0  0  0  0  0  0  0
   -3.5515  -12.4584   26.1534 H   0  0  0  0  0  0  0  0  0  0  0  0
   -1.9672  -11.5365   27.0447 H   0  0  0  0  0  0  0  0  0  0  0  0
    0.0160   -9.5903   28.2510 H   0  0  0  0  0  0  0  0  0  0  0  0
    0.7469   -7.4808   29.6415 H   0  0  0  0  0  0  0  0  0  0  0  0
   -3.8049  -11.2491   30.2537 H   0  0  0  0  0  0  0  0  0  0  0  0
   -5.6264  -11.3339   29.4845 H   0  0  0  0  0  0  0  0  0  0  0  0
  -11.4177  -14.3875   28.4492 H   0  0  0  0  0  0  0  0  0  0  0  0
  -13.1508  -15.9884   29.2768 H   0  0  0  0  0  0  0  0  0  0  0  0
  -12.9546  -20.2969   27.9718 H   0  0  0  0  0  0  0  0  0  0  0  0
  -12.0378  -21.8064   29.3077 H   0  0  0  0  0  0  0  0  0  0  0  0
  1  2  2  0
  2  3  1  0
  3  4  1  0
  4  5  2  0
  5  6  1  0
  6  7  2  0
  7  8  1  0
  8  9  2  0
  9 10  1  0
 10 11  2  0
 11 12  1  0
  7 13  1  0
 13 14  2  0
  2 15  1  0
 15 16  1  0
 16 17  2  0
 17 18  1  0
 18 19  1  0
 19 20  2  0
 20 21  1  0
 21 22  2  0
 22 23  1  0
 14  4  1  0
 23 15  2  0
 12  8  1  0
 22 18  1  0
  3 24  1  0
  5 25  1  0
  6 26  1  0
  9 27  1  0
 10 28  1  0
 13 29  1  0
 14 30  1  0
 16 31  1  0
 17 32  1  0
 19 33  1  0
 20 34  1  0
M  END
>  <Energy>  (951) 
976.01242707203369

>  <compound_id>  (951) 
16168

>  <target_id>  (951) 
1

>  <reference_id>  (951) 
187

>  <inspiration_ids>  (951) 
[107, 187]

>  <energy_score>  (951) 
871.9686775648576

>  <distance_score>  (951) 
8.262797750618944

>  <path>  (951) 
/opt/xchem-fragalysis-2/maxwin/BulkDock/SCRATCH/511016/C16168-P187/C16168-P187.minimised.mol

>  <scratch_subdir>  (951) 
/opt/xchem-fragalysis-2/maxwin/BulkDock/SCRATCH/511016/C16168-P187

>  <fragmenstein_runtime>  (951) 
10.280998468399048

>  <fragmenstein_outcome>  (951) 
too moved

>  <fragmenstein_mode>  (951) 
expansion

>  <fragmenstein_error>  (951) 


$$$$
C16178-P107
     RDKit          3D

 37 39  0  0  0  0  0  0  0  0999 V2000
   -3.6624  -12.0924   30.0372 C   0  0  0  0  0  0  0  0  0  0  0  0
   -2.1771  -12.2969   30.3246 C   0  0  0  0  0  0  0  0  0  0  0  0
   -1.3442  -10.6817   29.8751 C   0  0  0  0  0  0  0  0  0  0  0  0
   -1.2172   -9.2304   30.3387 N   0  0  0  0  0  0  0  0  0  0  0  0
   -1.6482   -8.5687   31.5840 C   0  0  0  0  0  0  0  0  0  0  0  0
   -2.2799   -8.9900   32.5110 O   0  0  0  0  0  0  0  0  0  0  0  0
   -1.1118   -7.1748   31.5872 C   0  0  0  0  0  0  0  0  0  0  0  0
   -0.5264   -6.3827   30.5999 C   0  0  0  0  0  0  0  0  0  0  0  0
   -0.2250   -5.0754   31.0837 C   0  0  0  0  0  0  0  0  0  0  0  0
   -0.5395   -4.8280   32.3464 N   0  0  0  0  0  0  0  0  0  0  0  0
   -1.0787   -6.2427   33.0331 S   0  0  0  0  0  0  0  0  0  0  0  0
   -2.4539  -13.8603   29.2958 N   0  0  0  0  0  0  0  0  0  0  0  0
   -2.8659  -15.2541   29.6743 C   0  0  0  0  0  0  0  0  0  0  0  0
   -3.0141  -15.7483   30.7331 O   0  0  0  0  0  0  0  0  0  0  0  0
   -3.4596  -16.4283   28.3431 C   0  0  0  0  0  0  0  0  0  0  0  0
   -5.0941  -16.6686   29.3445 C   0  0  0  0  0  0  0  0  0  0  0  0
   -5.8926  -17.8853   29.3783 C   0  0  0  0  0  0  0  0  0  0  0  0
   -5.9360  -18.8735   28.4834 N   0  0  0  0  0  0  0  0  0  0  0  0
   -7.1037  -19.3432   28.0006 C   0  0  0  0  0  0  0  0  0  0  0  0
   -7.8748  -18.2516   27.9812 C   0  0  0  0  0  0  0  0  0  0  0  0
   -6.8933  -17.5598   27.5039 N   0  0  0  0  0  0  0  0  0  0  0  0
   -5.4366  -18.2868   27.4513 C   0  0  0  0  0  0  0  0  0  0  0  0
   -3.9041  -17.2822   27.3891 N   0  0  0  0  0  0  0  0  0  0  0  0
   -4.1327  -11.4829   30.7766 H   0  0  0  0  0  0  0  0  0  0  0  0
   -3.7126  -11.8994   28.9806 H   0  0  0  0  0  0  0  0  0  0  0  0
   -4.3690  -12.9281   30.0531 H   0  0  0  0  0  0  0  0  0  0  0  0
   -1.3572  -12.6839   31.0156 H   0  0  0  0  0  0  0  0  0  0  0  0
   -1.4147  -10.5395   28.8091 H   0  0  0  0  0  0  0  0  0  0  0  0
   -0.2691  -10.8790   29.9128 H   0  0  0  0  0  0  0  0  0  0  0  0
   -0.6211   -8.5948   29.8114 H   0  0  0  0  0  0  0  0  0  0  0  0
   -0.3374   -6.6720   29.5756 H   0  0  0  0  0  0  0  0  0  0  0  0
    0.2144   -4.2685   30.5103 H   0  0  0  0  0  0  0  0  0  0  0  0
   -2.3207  -13.8100   28.3440 H   0  0  0  0  0  0  0  0  0  0  0  0
   -5.2903  -15.8788   30.0556 H   0  0  0  0  0  0  0  0  0  0  0  0
   -6.6629  -18.2143   30.0964 H   0  0  0  0  0  0  0  0  0  0  0  0
   -7.2101  -20.3137   27.5617 H   0  0  0  0  0  0  0  0  0  0  0  0
   -8.8876  -17.9089   27.8571 H   0  0  0  0  0  0  0  0  0  0  0  0
  1  2  1  0
  2  3  1  0
  3  4  1  0
  4  5  1  0
  5  6  2  0
  5  7  1  0
  7  8  2  0
  8  9  1  0
  9 10  2  0
 10 11  1  0
  2 12  1  0
 12 13  1  0
 13 14  2  0
 13 15  1  0
 15 16  1  0
 16 17  2  0
 17 18  1  0
 18 19  1  0
 19 20  2  0
 20 21  1  0
 21 22  2  0
 22 23  1  0
 11  7  1  0
 23 15  2  0
 22 18  1  0
  1 24  1  0
  1 25  1  0
  1 26  1  0
  2 27  1  0
  3 28  1  0
  3 29  1  0
  4 30  1  0
  8 31  1  0
  9 32  1  0
 12 33  1  0
 16 34  1  0
 17 35  1  0
 19 36  1  0
 20 37  1  0
M  END
>  <Energy>  (952) 
666.18712857937794

>  <compound_id>  (952) 
16178

>  <target_id>  (952) 
1

>  <reference_id>  (952) 
107

>  <inspiration_ids>  (952) 
[107, 187]

>  <energy_score>  (952) 
590.8080740966417

>  <distance_score>  (952) 
7.907152525947125

>  <path>  (952) 
/opt/xchem-fragalysis-2/maxwin/BulkDock/SCRATCH/511016/C16178-P107/C16178-P107.minimised.mol

>  <scratch_subdir>  (952) 
/opt/xchem-fragalysis-2/maxwin/BulkDock/SCRATCH/511016/C16178-P107

>  <fragmenstein_runtime>  (952) 
10.84809947013855

>  <fragmenstein_outcome>  (952) 
too moved

>  <fragmenstein_mode>  (952) 
expansion

>  <fragmenstein_error>  (952) 


$$$$
C16178-P187
     RDKit          3D

 37 39  0  0  0  0  0  0  0  0999 V2000
   -8.4207  -13.6750   26.1086 C   0  0  0  0  0  0  0  0  0  0  0  0
   -8.0228  -13.7910   27.5786 C   0  0  0  0  0  0  0  0  0  0  0  0
   -6.2746  -12.8294   27.2929 C   0  0  0  0  0  0  0  0  0  0  0  0
   -4.3954  -12.1704   27.4833 N   0  0  0  0  0  0  0  0  0  0  0  0
   -3.4100  -11.8337   28.8703 C   0  0  0  0  0  0  0  0  0  0  0  0
   -3.8630  -12.1121   29.8394 O   0  0  0  0  0  0  0  0  0  0  0  0
   -1.8313  -10.9382   29.1808 C   0  0  0  0  0  0  0  0  0  0  0  0
   -0.8484   -9.7954   28.6412 C   0  0  0  0  0  0  0  0  0  0  0  0
   -0.0356   -8.9261   29.3872 C   0  0  0  0  0  0  0  0  0  0  0  0
   -0.6460   -8.5275   30.4543 N   0  0  0  0  0  0  0  0  0  0  0  0
   -1.4772   -9.8090   30.9699 S   0  0  0  0  0  0  0  0  0  0  0  0
   -8.8984  -15.4287   27.7532 N   0  0  0  0  0  0  0  0  0  0  0  0
  -10.5552  -15.8046   27.7824 C   0  0  0  0  0  0  0  0  0  0  0  0
  -11.4988  -15.0652   27.6091 O   0  0  0  0  0  0  0  0  0  0  0  0
  -11.0197  -17.6237   28.2063 C   0  0  0  0  0  0  0  0  0  0  0  0
   -9.6778  -18.3689   27.7999 C   0  0  0  0  0  0  0  0  0  0  0  0
   -9.6642  -19.9544   27.9688 C   0  0  0  0  0  0  0  0  0  0  0  0
  -11.0274  -21.0331   28.6011 N   0  0  0  0  0  0  0  0  0  0  0  0
  -11.4465  -22.3237   28.3012 C   0  0  0  0  0  0  0  0  0  0  0  0
  -12.6345  -22.4559   28.9759 C   0  0  0  0  0  0  0  0  0  0  0  0
  -13.1643  -21.2307   29.3310 N   0  0  0  0  0  0  0  0  0  0  0  0
  -12.4109  -20.2924   28.7994 C   0  0  0  0  0  0  0  0  0  0  0  0
  -12.2582  -18.4655   28.6989 N   0  0  0  0  0  0  0  0  0  0  0  0
   -7.9502  -14.4264   25.4737 H   0  0  0  0  0  0  0  0  0  0  0  0
   -9.5026  -13.8225   26.0007 H   0  0  0  0  0  0  0  0  0  0  0  0
   -8.2540  -12.6922   25.6616 H   0  0  0  0  0  0  0  0  0  0  0  0
   -7.3925  -14.2544   28.3403 H   0  0  0  0  0  0  0  0  0  0  0  0
   -6.3296  -12.3545   28.2261 H   0  0  0  0  0  0  0  0  0  0  0  0
   -6.5227  -12.2315   26.4017 H   0  0  0  0  0  0  0  0  0  0  0  0
   -3.8543  -11.9624   26.6663 H   0  0  0  0  0  0  0  0  0  0  0  0
   -0.6483   -9.8400   27.6267 H   0  0  0  0  0  0  0  0  0  0  0  0
    0.8707   -8.4242   29.0959 H   0  0  0  0  0  0  0  0  0  0  0  0
   -8.3656  -16.2381   28.0141 H   0  0  0  0  0  0  0  0  0  0  0  0
   -8.8383  -17.8431   27.3873 H   0  0  0  0  0  0  0  0  0  0  0  0
   -8.7118  -20.7515   27.4519 H   0  0  0  0  0  0  0  0  0  0  0  0
  -10.8643  -23.0138   27.7151 H   0  0  0  0  0  0  0  0  0  0  0  0
  -13.2010  -23.3637   29.1469 H   0  0  0  0  0  0  0  0  0  0  0  0
  1  2  1  0
  2  3  1  0
  3  4  1  0
  4  5  1  0
  5  6  2  0
  5  7  1  0
  7  8  2  0
  8  9  1  0
  9 10  2  0
 10 11  1  0
  2 12  1  0
 12 13  1  0
 13 14  2  0
 13 15  1  0
 15 16  1  0
 16 17  2  0
 17 18  1  0
 18 19  1  0
 19 20  2  0
 20 21  1  0
 21 22  2  0
 22 23  1  0
 11  7  1  0
 23 15  2  0
 22 18  1  0
  1 24  1  0
  1 25  1  0
  1 26  1  0
  2 27  1  0
  3 28  1  0
  3 29  1  0
  4 30  1  0
  8 31  1  0
  9 32  1  0
 12 33  1  0
 16 34  1  0
 17 35  1  0
 19 36  1  0
 20 37  1  0
M  END
>  <Energy>  (953) 
907.89320701676593

>  <compound_id>  (953) 
16178

>  <target_id>  (953) 
1

>  <reference_id>  (953) 
187

>  <inspiration_ids>  (953) 
[107, 187]

>  <energy_score>  (953) 
832.5141525340363

>  <distance_score>  (953) 
8.754147838205402

>  <path>  (953) 
/opt/xchem-fragalysis-2/maxwin/BulkDock/SCRATCH/511016/C16178-P187/C16178-P187.minimised.mol

>  <scratch_subdir>  (953) 
/opt/xchem-fragalysis-2/maxwin/BulkDock/SCRATCH/511016/C16178-P187

>  <fragmenstein_runtime>  (953) 
13.663073778152466

>  <fragmenstein_outcome>  (953) 
too moved

>  <fragmenstein_mode>  (953) 
expansion

>  <fragmenstein_error>  (953) 


$$$$
C16182-P107
     RDKit          3D

 40 42  0  0  0  0  0  0  0  0999 V2000
   -3.1673  -11.9771   29.6745 C   0  0  0  0  0  0  0  0  0  0  0  0
   -4.4440  -12.2483   29.0548 C   0  0  0  0  0  0  0  0  0  0  0  0
   -5.3283  -12.9602   29.9750 C   0  0  0  0  0  0  0  0  0  0  0  0
   -5.5336  -11.5053   31.2745 C   0  0  0  0  0  0  0  0  0  0  0  0
   -4.6278  -10.1347   32.1730 N   0  0  0  0  0  0  0  0  0  0  0  0
   -3.1974   -9.6033   32.0180 C   0  0  0  0  0  0  0  0  0  0  0  0
   -2.3408   -9.8902   31.2240 O   0  0  0  0  0  0  0  0  0  0  0  0
   -2.6792   -8.6359   32.9847 C   0  0  0  0  0  0  0  0  0  0  0  0
   -1.7327   -7.6456   32.7008 C   0  0  0  0  0  0  0  0  0  0  0  0
   -1.3748   -6.9268   33.8695 C   0  0  0  0  0  0  0  0  0  0  0  0
   -1.9579   -7.3298   34.9951 N   0  0  0  0  0  0  0  0  0  0  0  0
   -2.8848   -8.6735   34.6763 S   0  0  0  0  0  0  0  0  0  0  0  0
   -6.2427  -14.5268   29.5361 N   0  0  0  0  0  0  0  0  0  0  0  0
   -7.6216  -14.8497   28.3594 C   0  0  0  0  0  0  0  0  0  0  0  0
   -8.1310  -14.0284   27.6189 O   0  0  0  0  0  0  0  0  0  0  0  0
   -8.6071  -16.6146   28.2495 C   0  0  0  0  0  0  0  0  0  0  0  0
   -8.0647  -18.2597   28.1176 C   0  0  0  0  0  0  0  0  0  0  0  0
   -8.8789  -19.5427   28.2435 C   0  0  0  0  0  0  0  0  0  0  0  0
  -10.3664  -19.9787   29.2616 N   0  0  0  0  0  0  0  0  0  0  0  0
  -11.3026  -20.9728   29.2430 C   0  0  0  0  0  0  0  0  0  0  0  0
  -12.3535  -20.1644   28.9898 C   0  0  0  0  0  0  0  0  0  0  0  0
  -12.1422  -18.4063   28.8341 N   0  0  0  0  0  0  0  0  0  0  0  0
  -10.7726  -18.0426   28.9759 C   0  0  0  0  0  0  0  0  0  0  0  0
   -9.9821  -16.7575   28.5432 N   0  0  0  0  0  0  0  0  0  0  0  0
   -2.7514  -12.9474   29.7244 H   0  0  0  0  0  0  0  0  0  0  0  0
   -2.4608  -11.2924   29.2530 H   0  0  0  0  0  0  0  0  0  0  0  0
   -3.3635  -11.5592   30.6051 H   0  0  0  0  0  0  0  0  0  0  0  0
   -5.3789  -11.7671   28.9571 H   0  0  0  0  0  0  0  0  0  0  0  0
   -4.2041  -12.2305   27.9755 H   0  0  0  0  0  0  0  0  0  0  0  0
   -4.5780  -13.5714   30.3064 H   0  0  0  0  0  0  0  0  0  0  0  0
   -6.0994  -10.7950   30.6513 H   0  0  0  0  0  0  0  0  0  0  0  0
   -6.3695  -11.7800   31.9232 H   0  0  0  0  0  0  0  0  0  0  0  0
   -5.0474   -9.7309   33.0027 H   0  0  0  0  0  0  0  0  0  0  0  0
   -1.3254   -7.4569   31.7148 H   0  0  0  0  0  0  0  0  0  0  0  0
   -0.6787   -6.0979   33.9281 H   0  0  0  0  0  0  0  0  0  0  0  0
   -5.9561  -15.3852   29.9625 H   0  0  0  0  0  0  0  0  0  0  0  0
   -7.1135  -18.2944   27.6122 H   0  0  0  0  0  0  0  0  0  0  0  0
   -9.1192  -20.5634   27.6979 H   0  0  0  0  0  0  0  0  0  0  0  0
  -11.1375  -22.0251   29.3975 H   0  0  0  0  0  0  0  0  0  0  0  0
  -13.3599  -20.3370   29.0470 H   0  0  0  0  0  0  0  0  0  0  0  0
  1  2  1  0
  2  3  1  0
  3  4  1  0
  4  5  1  0
  5  6  1  0
  6  7  2  0
  6  8  1  0
  8  9  2  0
  9 10  1  0
 10 11  2  0
 11 12  1  0
  3 13  1  0
 13 14  1  0
 14 15  2  0
 14 16  1  0
 16 17  1  0
 17 18  2  0
 18 19  1  0
 19 20  1  0
 20 21  2  0
 21 22  1  0
 22 23  2  0
 23 24  1  0
 12  8  1  0
 24 16  2  0
 23 19  1  0
  1 25  1  0
  1 26  1  0
  1 27  1  0
  2 28  1  0
  2 29  1  0
  3 30  1  0
  4 31  1  0
  4 32  1  0
  5 33  1  0
  9 34  1  0
 10 35  1  0
 13 36  1  0
 17 37  1  0
 18 38  1  0
 20 39  1  0
 21 40  1  0
M  END
>  <Energy>  (954) 
863.24533963610122

>  <compound_id>  (954) 
16182

>  <target_id>  (954) 
1

>  <reference_id>  (954) 
107

>  <inspiration_ids>  (954) 
[107, 187]

>  <energy_score>  (954) 
785.1510373253539

>  <distance_score>  (954) 
7.52006650428058

>  <path>  (954) 
/opt/xchem-fragalysis-2/maxwin/BulkDock/SCRATCH/511016/C16182-P107/C16182-P107.minimised.mol

>  <scratch_subdir>  (954) 
/opt/xchem-fragalysis-2/maxwin/BulkDock/SCRATCH/511016/C16182-P107

>  <fragmenstein_runtime>  (954) 
17.00589418411255

>  <fragmenstein_outcome>  (954) 
too moved

>  <fragmenstein_mode>  (954) 
expansion

>  <fragmenstein_error>  (954) 


$$$$
C16182-P187
     RDKit          3D

 40 42  0  0  0  0  0  0  0  0999 V2000
   -2.8289  -12.1664   27.8457 C   0  0  0  0  0  0  0  0  0  0  0  0
   -4.3921  -12.2755   27.9702 C   0  0  0  0  0  0  0  0  0  0  0  0
   -5.6168  -12.9263   29.4764 C   0  0  0  0  0  0  0  0  0  0  0  0
   -3.7992  -11.8629   29.7618 C   0  0  0  0  0  0  0  0  0  0  0  0
   -2.8517  -10.2326   30.5529 N   0  0  0  0  0  0  0  0  0  0  0  0
   -1.4286   -9.8939   30.6360 C   0  0  0  0  0  0  0  0  0  0  0  0
   -0.5016  -10.4395   30.2000 O   0  0  0  0  0  0  0  0  0  0  0  0
   -1.0937   -8.5963   31.2842 C   0  0  0  0  0  0  0  0  0  0  0  0
   -0.2687   -7.6354   30.7007 C   0  0  0  0  0  0  0  0  0  0  0  0
   -0.2165   -6.4440   31.4659 C   0  0  0  0  0  0  0  0  0  0  0  0
   -0.9003   -6.4657   32.6020 N   0  0  0  0  0  0  0  0  0  0  0  0
   -1.5680   -7.9780   32.7707 S   0  0  0  0  0  0  0  0  0  0  0  0
   -6.6335  -14.7462   29.1865 N   0  0  0  0  0  0  0  0  0  0  0  0
   -8.3451  -15.2295   28.2796 C   0  0  0  0  0  0  0  0  0  0  0  0
   -8.9876  -14.3918   27.6655 O   0  0  0  0  0  0  0  0  0  0  0  0
   -9.3447  -17.1566   28.2201 C   0  0  0  0  0  0  0  0  0  0  0  0
   -8.7776  -18.3880   27.8218 C   0  0  0  0  0  0  0  0  0  0  0  0
   -9.3433  -19.9079   27.9568 C   0  0  0  0  0  0  0  0  0  0  0  0
  -10.6618  -21.0318   28.2837 N   0  0  0  0  0  0  0  0  0  0  0  0
  -11.3250  -22.2028   28.1776 C   0  0  0  0  0  0  0  0  0  0  0  0
  -12.1922  -22.0583   29.2226 C   0  0  0  0  0  0  0  0  0  0  0  0
  -11.9691  -20.8271   29.8204 N   0  0  0  0  0  0  0  0  0  0  0  0
  -10.9792  -20.1083   29.1933 C   0  0  0  0  0  0  0  0  0  0  0  0
  -10.6245  -18.2218   28.8289 N   0  0  0  0  0  0  0  0  0  0  0  0
   -2.5332  -12.2417   26.7836 H   0  0  0  0  0  0  0  0  0  0  0  0
   -2.2943  -11.3325   28.2586 H   0  0  0  0  0  0  0  0  0  0  0  0
   -2.3938  -12.9904   28.4235 H   0  0  0  0  0  0  0  0  0  0  0  0
   -4.0357  -12.9911   27.2869 H   0  0  0  0  0  0  0  0  0  0  0  0
   -5.1686  -11.8740   27.3365 H   0  0  0  0  0  0  0  0  0  0  0  0
   -5.2589  -13.6604   30.1832 H   0  0  0  0  0  0  0  0  0  0  0  0
   -4.1764  -11.1939   30.4406 H   0  0  0  0  0  0  0  0  0  0  0  0
   -4.7618  -11.4653   29.4662 H   0  0  0  0  0  0  0  0  0  0  0  0
   -3.4032   -9.5592   31.1453 H   0  0  0  0  0  0  0  0  0  0  0  0
    0.2455   -7.8030   29.7685 H   0  0  0  0  0  0  0  0  0  0  0  0
    0.3220   -5.5377   31.2188 H   0  0  0  0  0  0  0  0  0  0  0  0
   -6.2921  -15.5512   29.7114 H   0  0  0  0  0  0  0  0  0  0  0  0
   -7.7918  -18.1570   27.4777 H   0  0  0  0  0  0  0  0  0  0  0  0
   -8.4960  -20.7710   27.4420 H   0  0  0  0  0  0  0  0  0  0  0  0
  -11.1346  -22.9795   27.4554 H   0  0  0  0  0  0  0  0  0  0  0  0
  -12.9431  -22.7419   29.5969 H   0  0  0  0  0  0  0  0  0  0  0  0
  1  2  1  0
  2  3  1  0
  3  4  1  0
  4  5  1  0
  5  6  1  0
  6  7  2  0
  6  8  1  0
  8  9  2  0
  9 10  1  0
 10 11  2  0
 11 12  1  0
  3 13  1  0
 13 14  1  0
 14 15  2  0
 14 16  1  0
 16 17  1  0
 17 18  2  0
 18 19  1  0
 19 20  1  0
 20 21  2  0
 21 22  1  0
 22 23  2  0
 23 24  1  0
 12  8  1  0
 24 16  2  0
 23 19  1  0
  1 25  1  0
  1 26  1  0
  1 27  1  0
  2 28  1  0
  2 29  1  0
  3 30  1  0
  4 31  1  0
  4 32  1  0
  5 33  1  0
  9 34  1  0
 10 35  1  0
 13 36  1  0
 17 37  1  0
 18 38  1  0
 20 39  1  0
 21 40  1  0
M  END
>  <Energy>  (955) 
1571.0741197853929

>  <compound_id>  (955) 
16182

>  <target_id>  (955) 
1

>  <reference_id>  (955) 
187

>  <inspiration_ids>  (955) 
[107, 187]

>  <energy_score>  (955) 
1492.9798174746406

>  <distance_score>  (955) 
7.059565749237101

>  <path>  (955) 
/opt/xchem-fragalysis-2/maxwin/BulkDock/SCRATCH/511016/C16182-P187/C16182-P187.minimised.mol

>  <scratch_subdir>  (955) 
/opt/xchem-fragalysis-2/maxwin/BulkDock/SCRATCH/511016/C16182-P187

>  <fragmenstein_runtime>  (955) 
21.887357711791992

>  <fragmenstein_outcome>  (955) 
too moved

>  <fragmenstein_mode>  (955) 
expansion

>  <fragmenstein_error>  (955) 


$$$$
C9234-P94
     RDKit          3D

 48 51  0  0  0  0  0  0  0  0999 V2000
   -8.4042  -12.2446   16.7842 O   0  0  0  0  0  0  0  0  0  0  0  0
   -7.6463  -12.8753   17.4422 C   0  0  0  0  0  0  0  0  0  0  0  0
   -6.1505  -12.6851   16.8825 C   0  0  0  0  0  0  0  0  0  0  0  0
   -6.3187  -12.1690   14.9039 S   0  0  0  0  0  0  0  0  0  0  0  0
   -5.7335  -10.4177   14.7946 C   0  0  0  0  0  0  0  0  0  0  0  0
   -5.8842   -9.8581   13.3511 C   0  0  0  0  0  0  0  0  0  0  0  0
   -5.0570   -8.6675   13.1530 N   0  0  0  0  0  0  0  0  0  0  0  0
   -5.4972   -7.5002   13.9052 C   0  0  0  0  0  0  0  0  0  0  0  0
   -5.0686   -6.3155   13.0635 C   0  0  0  0  0  0  0  0  0  0  0  0
   -4.2953   -6.9095   11.9045 C   0  0  0  0  0  0  0  0  0  0  0  0
   -4.9192   -8.2798   11.7532 C   0  0  0  0  0  0  0  0  0  0  0  0
   -7.8989  -13.7329   18.6847 N   0  0  0  0  0  0  0  0  0  0  0  0
   -9.0329  -13.9331   19.4280 C   0  0  0  0  0  0  0  0  0  0  0  0
   -8.5997  -15.7938   19.7090 C   0  0  0  0  0  0  0  0  0  0  0  0
   -6.9997  -17.0038   20.4130 C   0  0  0  0  0  0  0  0  0  0  0  0
   -6.3775  -17.8753   19.5912 N   0  0  0  0  0  0  0  0  0  0  0  0
   -6.1095  -19.0441   20.3220 C   0  0  0  0  0  0  0  0  0  0  0  0
   -5.5689  -20.2836   19.9364 C   0  0  0  0  0  0  0  0  0  0  0  0
   -5.3901  -21.2980   20.8986 C   0  0  0  0  0  0  0  0  0  0  0  0
   -5.6859  -21.0712   22.2395 C   0  0  0  0  0  0  0  0  0  0  0  0
   -6.2082  -19.8431   22.6381 C   0  0  0  0  0  0  0  0  0  0  0  0
   -6.4729  -18.8995   21.6414 C   0  0  0  0  0  0  0  0  0  0  0  0
   -7.1471  -17.7119   21.6458 N   0  0  0  0  0  0  0  0  0  0  0  0
   -8.2954  -15.5699   18.2621 C   0  0  0  0  0  0  0  0  0  0  0  0
   -5.6406  -11.8675   17.3934 H   0  0  0  0  0  0  0  0  0  0  0  0
   -5.5589  -13.5972   16.8207 H   0  0  0  0  0  0  0  0  0  0  0  0
   -4.6770  -10.4258   15.0841 H   0  0  0  0  0  0  0  0  0  0  0  0
   -6.2787   -9.7974   15.5094 H   0  0  0  0  0  0  0  0  0  0  0  0
   -5.5432  -10.6285   12.6473 H   0  0  0  0  0  0  0  0  0  0  0  0
   -6.9401   -9.6595   13.1278 H   0  0  0  0  0  0  0  0  0  0  0  0
   -6.5777   -7.4769   14.0729 H   0  0  0  0  0  0  0  0  0  0  0  0
   -5.0094   -7.4784   14.8857 H   0  0  0  0  0  0  0  0  0  0  0  0
   -5.9580   -5.8155   12.6872 H   0  0  0  0  0  0  0  0  0  0  0  0
   -4.4717   -5.6067   13.6423 H   0  0  0  0  0  0  0  0  0  0  0  0
   -3.2339   -6.9983   12.1699 H   0  0  0  0  0  0  0  0  0  0  0  0
   -4.3584   -6.3040   11.0033 H   0  0  0  0  0  0  0  0  0  0  0  0
   -4.2636   -8.9668   11.2122 H   0  0  0  0  0  0  0  0  0  0  0  0
   -5.8840   -8.2299   11.2405 H   0  0  0  0  0  0  0  0  0  0  0  0
   -9.9761  -13.5402   19.0609 H   0  0  0  0  0  0  0  0  0  0  0  0
   -8.9679  -13.4071   20.3394 H   0  0  0  0  0  0  0  0  0  0  0  0
   -8.2380  -15.5379   20.6660 H   0  0  0  0  0  0  0  0  0  0  0  0
   -5.3031  -20.4495   18.8983 H   0  0  0  0  0  0  0  0  0  0  0  0
   -4.9837  -22.2569   20.5867 H   0  0  0  0  0  0  0  0  0  0  0  0
   -5.4996  -21.8503   22.9735 H   0  0  0  0  0  0  0  0  0  0  0  0
   -6.4055  -19.6331   23.6726 H   0  0  0  0  0  0  0  0  0  0  0  0
   -7.4498  -17.2583   22.4891 H   0  0  0  0  0  0  0  0  0  0  0  0
   -9.2148  -15.9644   17.8634 H   0  0  0  0  0  0  0  0  0  0  0  0
   -7.6471  -16.0680   17.5273 H   0  0  0  0  0  0  0  0  0  0  0  0
  1  2  2  0
  2  3  1  0
  3  4  1  0
  4  5  1  0
  5  6  1  0
  6  7  1  0
  7  8  1  0
  8  9  1  0
  9 10  1  0
 10 11  1  0
  2 12  1  0
 12 13  1  0
 13 14  1  0
 14 15  1  0
 15 16  2  0
 16 17  1  0
 17 18  2  0
 18 19  1  0
 19 20  2  0
 20 21  1  0
 21 22  2  0
 22 23  1  0
 14 24  1  0
 11  7  1  0
 24 12  1  0
 23 15  1  0
 22 17  1  0
  3 25  1  0
  3 26  1  0
  5 27  1  0
  5 28  1  0
  6 29  1  0
  6 30  1  0
  8 31  1  0
  8 32  1  0
  9 33  1  0
  9 34  1  0
 10 35  1  0
 10 36  1  0
 11 37  1  0
 11 38  1  0
 13 39  1  0
 13 40  1  0
 14 41  1  0
 18 42  1  0
 19 43  1  0
 20 44  1  0
 21 45  1  0
 23 46  1  0
 24 47  1  0
 24 48  1  0
M  END
>  <Energy>  (956) 
321.54543136697754

>  <compound_id>  (956) 
9234

>  <target_id>  (956) 
1

>  <reference_id>  (956) 
94

>  <inspiration_ids>  (956) 
[94, 95]

>  <energy_score>  (956) 
209.70029401766567

>  <distance_score>  (956) 
12.397279099774721

>  <path>  (956) 
/opt/xchem-fragalysis-2/maxwin/BulkDock/SCRATCH/511016/C9234-P94/C9234-P94.minimised.mol

>  <scratch_subdir>  (956) 
/opt/xchem-fragalysis-2/maxwin/BulkDock/SCRATCH/511016/C9234-P94

>  <fragmenstein_runtime>  (956) 
38.33980059623718

>  <fragmenstein_outcome>  (956) 
too moved

>  <fragmenstein_mode>  (956) 
expansion

>  <fragmenstein_error>  (956) 


$$$$
C9234-P95
     RDKit          3D

 48 51  0  0  0  0  0  0  0  0999 V2000
  -12.3811  -11.4526   18.0067 O   0  0  0  0  0  0  0  0  0  0  0  0
  -11.3187  -11.8109   17.6148 C   0  0  0  0  0  0  0  0  0  0  0  0
  -11.0078  -10.9246   15.6940 C   0  0  0  0  0  0  0  0  0  0  0  0
   -9.8043   -9.0827   14.5358 S   0  0  0  0  0  0  0  0  0  0  0  0
   -9.9810   -6.6133   14.5503 C   0  0  0  0  0  0  0  0  0  0  0  0
   -9.6776   -5.0124   13.2312 C   0  0  0  0  0  0  0  0  0  0  0  0
   -9.8598   -4.2271   11.4505 N   0  0  0  0  0  0  0  0  0  0  0  0
  -10.4167   -2.4188   11.1471 C   0  0  0  0  0  0  0  0  0  0  0  0
   -9.9436   -1.7707    9.6710 C   0  0  0  0  0  0  0  0  0  0  0  0
   -9.2256   -2.9469    8.8465 C   0  0  0  0  0  0  0  0  0  0  0  0
   -9.3400   -4.4444    9.7781 C   0  0  0  0  0  0  0  0  0  0  0  0
  -10.4604  -12.9522   19.0049 N   0  0  0  0  0  0  0  0  0  0  0  0
  -11.0538  -13.4385   20.9747 C   0  0  0  0  0  0  0  0  0  0  0  0
  -11.7551  -15.4369   21.1240 C   0  0  0  0  0  0  0  0  0  0  0  0
  -11.7282  -16.6606   23.1081 C   0  0  0  0  0  0  0  0  0  0  0  0
  -10.4098  -17.8624   23.6098 N   0  0  0  0  0  0  0  0  0  0  0  0
  -10.7407  -19.8619   23.4355 C   0  0  0  0  0  0  0  0  0  0  0  0
  -10.4322  -21.0766   22.7239 C   0  0  0  0  0  0  0  0  0  0  0  0
  -11.4046  -22.0346   22.4622 C   0  0  0  0  0  0  0  0  0  0  0  0
  -12.5322  -22.1516   23.2382 C   0  0  0  0  0  0  0  0  0  0  0  0
  -12.8224  -21.1977   24.1953 C   0  0  0  0  0  0  0  0  0  0  0  0
  -12.3852  -19.8632   23.9604 C   0  0  0  0  0  0  0  0  0  0  0  0
  -12.9441  -17.9293   23.9907 N   0  0  0  0  0  0  0  0  0  0  0  0
  -10.5315  -14.9744   19.2956 C   0  0  0  0  0  0  0  0  0  0  0  0
  -10.3949  -11.7036   15.1126 H   0  0  0  0  0  0  0  0  0  0  0  0
  -12.0776  -10.5106   15.5074 H   0  0  0  0  0  0  0  0  0  0  0  0
   -9.2826   -6.3905   15.3675 H   0  0  0  0  0  0  0  0  0  0  0  0
  -11.0131   -6.4688   14.9025 H   0  0  0  0  0  0  0  0  0  0  0  0
   -8.6019   -4.7995   13.3656 H   0  0  0  0  0  0  0  0  0  0  0  0
  -10.0922   -4.2153   13.8711 H   0  0  0  0  0  0  0  0  0  0  0  0
  -11.4560   -2.1998   11.1689 H   0  0  0  0  0  0  0  0  0  0  0  0
  -10.2389   -1.7522   12.0221 H   0  0  0  0  0  0  0  0  0  0  0  0
  -10.8326   -1.4194    9.1220 H   0  0  0  0  0  0  0  0  0  0  0  0
   -9.3542   -0.8506    9.7627 H   0  0  0  0  0  0  0  0  0  0  0  0
   -8.1817   -2.6977    8.6375 H   0  0  0  0  0  0  0  0  0  0  0  0
   -9.6876   -3.1005    7.8609 H   0  0  0  0  0  0  0  0  0  0  0  0
   -8.3101   -4.8191    9.6026 H   0  0  0  0  0  0  0  0  0  0  0  0
  -10.0251   -5.0895    9.3786 H   0  0  0  0  0  0  0  0  0  0  0  0
   -9.9540  -13.1961   21.2965 H   0  0  0  0  0  0  0  0  0  0  0  0
  -11.2223  -12.7085   21.7697 H   0  0  0  0  0  0  0  0  0  0  0  0
  -12.7791  -15.7300   20.7829 H   0  0  0  0  0  0  0  0  0  0  0  0
   -9.4990  -21.2772   22.1909 H   0  0  0  0  0  0  0  0  0  0  0  0
  -11.1997  -22.7365   21.6605 H   0  0  0  0  0  0  0  0  0  0  0  0
  -13.1785  -23.0209   23.1900 H   0  0  0  0  0  0  0  0  0  0  0  0
  -12.4359  -21.6295   25.1438 H   0  0  0  0  0  0  0  0  0  0  0  0
  -12.1689  -17.8102   24.5444 H   0  0  0  0  0  0  0  0  0  0  0  0
   -9.8127  -15.6749   18.8133 H   0  0  0  0  0  0  0  0  0  0  0  0
   -9.3544  -14.7342   19.4332 H   0  0  0  0  0  0  0  0  0  0  0  0
  1  2  2  0
  2  3  1  0
  3  4  1  0
  4  5  1  0
  5  6  1  0
  6  7  1  0
  7  8  1  0
  8  9  1  0
  9 10  1  0
 10 11  1  0
  2 12  1  0
 12 13  1  0
 13 14  1  0
 14 15  1  0
 15 16  2  0
 16 17  1  0
 17 18  2  0
 18 19  1  0
 19 20  2  0
 20 21  1  0
 21 22  2  0
 22 23  1  0
 14 24  1  0
 11  7  1  0
 24 12  1  0
 23 15  1  0
 22 17  1  0
  3 25  1  0
  3 26  1  0
  5 27  1  0
  5 28  1  0
  6 29  1  0
  6 30  1  0
  8 31  1  0
  8 32  1  0
  9 33  1  0
  9 34  1  0
 10 35  1  0
 10 36  1  0
 11 37  1  0
 11 38  1  0
 13 39  1  0
 13 40  1  0
 14 41  1  0
 18 42  1  0
 19 43  1  0
 20 44  1  0
 21 45  1  0
 23 46  1  0
 24 47  1  0
 24 48  1  0
M  END
>  <Energy>  (957) 
2183.7969072155342

>  <compound_id>  (957) 
9234

>  <target_id>  (957) 
1

>  <reference_id>  (957) 
95

>  <inspiration_ids>  (957) 
[94, 95]

>  <energy_score>  (957) 
2071.951769866239

>  <distance_score>  (957) 
9.312028057014674

>  <path>  (957) 
/opt/xchem-fragalysis-2/maxwin/BulkDock/SCRATCH/511016/C9234-P95/C9234-P95.minimised.mol

>  <scratch_subdir>  (957) 
/opt/xchem-fragalysis-2/maxwin/BulkDock/SCRATCH/511016/C9234-P95

>  <fragmenstein_runtime>  (957) 
34.803239583969116

>  <fragmenstein_outcome>  (957) 
too moved

>  <fragmenstein_mode>  (957) 
expansion

>  <fragmenstein_error>  (957) 


$$$$
C9249-P94
     RDKit          3D

 43 45  0  0  0  0  0  0  0  0999 V2000
  -13.3722  -16.2145   13.2456 C   0  0  0  0  0  0  0  0  0  0  0  0
  -13.3504  -17.2685   14.0173 N   0  0  0  0  0  0  0  0  0  0  0  0
  -13.2292  -16.0665   12.4307 C   0  0  0  0  0  0  0  0  0  0  0  0
  -12.2518  -14.4946   12.2322 C   0  0  0  0  0  0  0  0  0  0  0  0
  -12.2927  -13.8591   10.7990 C   0  0  0  0  0  0  0  0  0  0  0  0
  -11.7677  -12.4811   10.6804 N   0  0  0  0  0  0  0  0  0  0  0  0
  -11.9472  -11.9297    9.3256 C   0  0  0  0  0  0  0  0  0  0  0  0
  -11.1175  -10.6611    9.3605 C   0  0  0  0  0  0  0  0  0  0  0  0
   -9.9518  -11.0012   10.2767 C   0  0  0  0  0  0  0  0  0  0  0  0
  -10.3287  -12.3336   10.9307 C   0  0  0  0  0  0  0  0  0  0  0  0
  -12.3610  -18.5748   14.2101 C   0  0  0  0  0  0  0  0  0  0  0  0
  -11.4451  -18.9498   13.6136 O   0  0  0  0  0  0  0  0  0  0  0  0
  -12.6794  -19.3812   15.5029 C   0  0  0  0  0  0  0  0  0  0  0  0
  -11.7141  -19.9921   16.2122 N   0  0  0  0  0  0  0  0  0  0  0  0
  -12.2759  -20.5504   17.3464 C   0  0  0  0  0  0  0  0  0  0  0  0
  -11.6899  -21.2717   18.4116 C   0  0  0  0  0  0  0  0  0  0  0  0
  -12.4805  -21.6614   19.5054 C   0  0  0  0  0  0  0  0  0  0  0  0
  -13.8406  -21.3587   19.5169 C   0  0  0  0  0  0  0  0  0  0  0  0
  -14.8969  -21.8577   21.0063 Br  0  0  0  0  0  0  0  0  0  0  0  0
  -14.4554  -20.6830   18.4456 C   0  0  0  0  0  0  0  0  0  0  0  0
  -13.6377  -20.2941   17.3663 C   0  0  0  0  0  0  0  0  0  0  0  0
  -13.8771  -19.6212   16.1671 N   0  0  0  0  0  0  0  0  0  0  0  0
  -13.8062  -15.2311   13.9253 H   0  0  0  0  0  0  0  0  0  0  0  0
  -14.6111  -16.3500   13.4766 H   0  0  0  0  0  0  0  0  0  0  0  0
  -12.4708  -15.8570   14.0027 H   0  0  0  0  0  0  0  0  0  0  0  0
  -12.5596  -16.7480   11.6950 H   0  0  0  0  0  0  0  0  0  0  0  0
  -14.1946  -16.0185   11.6712 H   0  0  0  0  0  0  0  0  0  0  0  0
  -12.6572  -13.7711   12.9521 H   0  0  0  0  0  0  0  0  0  0  0  0
  -11.2191  -14.7398   12.5119 H   0  0  0  0  0  0  0  0  0  0  0  0
  -13.3468  -13.8462   10.4955 H   0  0  0  0  0  0  0  0  0  0  0  0
  -11.7728  -14.5336   10.1072 H   0  0  0  0  0  0  0  0  0  0  0  0
  -12.9985  -11.7155    9.1086 H   0  0  0  0  0  0  0  0  0  0  0  0
  -11.5613  -12.6149    8.5600 H   0  0  0  0  0  0  0  0  0  0  0  0
  -10.7897  -10.3458    8.3658 H   0  0  0  0  0  0  0  0  0  0  0  0
  -11.7156   -9.8586    9.7996 H   0  0  0  0  0  0  0  0  0  0  0  0
   -9.0195  -11.0997    9.7103 H   0  0  0  0  0  0  0  0  0  0  0  0
   -9.8087  -10.2189   11.0278 H   0  0  0  0  0  0  0  0  0  0  0  0
  -10.1034  -12.3297   12.0018 H   0  0  0  0  0  0  0  0  0  0  0  0
   -9.7578  -13.1445   10.4610 H   0  0  0  0  0  0  0  0  0  0  0  0
  -10.6243  -21.4801   18.3943 H   0  0  0  0  0  0  0  0  0  0  0  0
  -12.0134  -22.1815   20.3370 H   0  0  0  0  0  0  0  0  0  0  0  0
  -15.5174  -20.4622   18.4526 H   0  0  0  0  0  0  0  0  0  0  0  0
  -14.7767  -19.3055   15.8387 H   0  0  0  0  0  0  0  0  0  0  0  0
  1  2  1  0
  2  3  1  0
  3  4  1  0
  4  5  1  0
  5  6  1  0
  6  7  1  0
  7  8  1  0
  8  9  1  0
  9 10  1  0
  2 11  1  0
 11 12  2  0
 11 13  1  0
 13 14  2  0
 14 15  1  0
 15 16  2  0
 16 17  1  0
 17 18  2  0
 18 19  1  0
 18 20  1  0
 20 21  2  0
 21 22  1  0
 10  6  1  0
 22 13  1  0
 21 15  1  0
  1 23  1  0
  1 24  1  0
  1 25  1  0
  3 26  1  0
  3 27  1  0
  4 28  1  0
  4 29  1  0
  5 30  1  0
  5 31  1  0
  7 32  1  0
  7 33  1  0
  8 34  1  0
  8 35  1  0
  9 36  1  0
  9 37  1  0
 10 38  1  0
 10 39  1  0
 16 40  1  0
 17 41  1  0
 20 42  1  0
 22 43  1  0
M  END
>  <Energy>  (958) 
797.6504776683214

>  <compound_id>  (958) 
9249

>  <target_id>  (958) 
1

>  <reference_id>  (958) 
94

>  <inspiration_ids>  (958) 
[94, 95]

>  <energy_score>  (958) 
736.785090551888

>  <distance_score>  (958) 
14.507770476983437

>  <path>  (958) 
/opt/xchem-fragalysis-2/maxwin/BulkDock/SCRATCH/511016/C9249-P94/C9249-P94.minimised.mol

>  <scratch_subdir>  (958) 
/opt/xchem-fragalysis-2/maxwin/BulkDock/SCRATCH/511016/C9249-P94

>  <fragmenstein_runtime>  (958) 
20.346360683441162

>  <fragmenstein_outcome>  (958) 
too moved

>  <fragmenstein_mode>  (958) 
expansion

>  <fragmenstein_error>  (958) 


$$$$
C9249-P95
     RDKit          3D

 43 45  0  0  0  0  0  0  0  0999 V2000
   -9.1827  -12.4722   18.7587 C   0  0  0  0  0  0  0  0  0  0  0  0
   -9.9436  -13.4629   19.6544 N   0  0  0  0  0  0  0  0  0  0  0  0
   -9.4596  -11.8186   18.5908 C   0  0  0  0  0  0  0  0  0  0  0  0
   -8.9534  -11.2520   16.8360 C   0  0  0  0  0  0  0  0  0  0  0  0
   -8.3632   -9.7951   16.7635 C   0  0  0  0  0  0  0  0  0  0  0  0
   -7.9857   -9.2797   15.4264 N   0  0  0  0  0  0  0  0  0  0  0  0
   -7.2020  -10.1950   14.5917 C   0  0  0  0  0  0  0  0  0  0  0  0
   -6.6039   -9.2926   13.5258 C   0  0  0  0  0  0  0  0  0  0  0  0
   -6.2332   -8.0489   14.3093 C   0  0  0  0  0  0  0  0  0  0  0  0
   -7.1858   -8.0402   15.5091 C   0  0  0  0  0  0  0  0  0  0  0  0
  -10.8508  -13.3645   21.4119 C   0  0  0  0  0  0  0  0  0  0  0  0
  -11.0994  -12.4443   22.1051 O   0  0  0  0  0  0  0  0  0  0  0  0
  -11.5154  -15.1126   22.2449 C   0  0  0  0  0  0  0  0  0  0  0  0
  -12.1801  -15.6149   23.4286 N   0  0  0  0  0  0  0  0  0  0  0  0
  -13.4291  -16.4749   23.2489 C   0  0  0  0  0  0  0  0  0  0  0  0
  -14.5528  -16.9148   24.0628 C   0  0  0  0  0  0  0  0  0  0  0  0
  -15.6860  -17.6211   23.6342 C   0  0  0  0  0  0  0  0  0  0  0  0
  -15.9245  -17.6685   22.2913 C   0  0  0  0  0  0  0  0  0  0  0  0
  -17.4787  -18.4916   21.6132 Br  0  0  0  0  0  0  0  0  0  0  0  0
  -15.0420  -17.0276   21.4256 C   0  0  0  0  0  0  0  0  0  0  0  0
  -13.8048  -16.4508   21.9272 C   0  0  0  0  0  0  0  0  0  0  0  0
  -12.6946  -15.9299   21.2619 N   0  0  0  0  0  0  0  0  0  0  0  0
   -7.8351  -12.0432   18.8938 H   0  0  0  0  0  0  0  0  0  0  0  0
   -8.4570  -13.2869   19.3162 H   0  0  0  0  0  0  0  0  0  0  0  0
   -8.5196  -13.0841   17.8802 H   0  0  0  0  0  0  0  0  0  0  0  0
  -10.6423  -11.6308   18.1896 H   0  0  0  0  0  0  0  0  0  0  0  0
   -9.4404  -10.7131   19.0000 H   0  0  0  0  0  0  0  0  0  0  0  0
   -8.1802  -11.9210   16.4394 H   0  0  0  0  0  0  0  0  0  0  0  0
   -9.8670  -11.2809   16.2288 H   0  0  0  0  0  0  0  0  0  0  0  0
   -9.1001   -9.1104   17.1994 H   0  0  0  0  0  0  0  0  0  0  0  0
   -7.4880   -9.7873   17.4261 H   0  0  0  0  0  0  0  0  0  0  0  0
   -6.3990  -10.6703   15.1695 H   0  0  0  0  0  0  0  0  0  0  0  0
   -7.8251  -10.9757   14.1447 H   0  0  0  0  0  0  0  0  0  0  0  0
   -7.3444   -9.0755   12.7524 H   0  0  0  0  0  0  0  0  0  0  0  0
   -5.7347   -9.7456   13.0395 H   0  0  0  0  0  0  0  0  0  0  0  0
   -5.2007   -8.1413   14.6690 H   0  0  0  0  0  0  0  0  0  0  0  0
   -6.2813   -7.1388   13.7066 H   0  0  0  0  0  0  0  0  0  0  0  0
   -6.5870   -7.9935   16.4274 H   0  0  0  0  0  0  0  0  0  0  0  0
   -7.8421   -7.1650   15.5055 H   0  0  0  0  0  0  0  0  0  0  0  0
  -14.7835  -16.3715   24.9842 H   0  0  0  0  0  0  0  0  0  0  0  0
  -16.4323  -17.9455   24.3537 H   0  0  0  0  0  0  0  0  0  0  0  0
  -15.2315  -17.0418   20.3545 H   0  0  0  0  0  0  0  0  0  0  0  0
  -12.6816  -15.6766   20.2886 H   0  0  0  0  0  0  0  0  0  0  0  0
  1  2  1  0
  2  3  1  0
  3  4  1  0
  4  5  1  0
  5  6  1  0
  6  7  1  0
  7  8  1  0
  8  9  1  0
  9 10  1  0
  2 11  1  0
 11 12  2  0
 11 13  1  0
 13 14  2  0
 14 15  1  0
 15 16  2  0
 16 17  1  0
 17 18  2  0
 18 19  1  0
 18 20  1  0
 20 21  2  0
 21 22  1  0
 10  6  1  0
 22 13  1  0
 21 15  1  0
  1 23  1  0
  1 24  1  0
  1 25  1  0
  3 26  1  0
  3 27  1  0
  4 28  1  0
  4 29  1  0
  5 30  1  0
  5 31  1  0
  7 32  1  0
  7 33  1  0
  8 34  1  0
  8 35  1  0
  9 36  1  0
  9 37  1  0
 10 38  1  0
 10 39  1  0
 16 40  1  0
 17 41  1  0
 20 42  1  0
 22 43  1  0
M  END
>  <Energy>  (959) 
1151.9404274377464

>  <compound_id>  (959) 
9249

>  <target_id>  (959) 
1

>  <reference_id>  (959) 
95

>  <inspiration_ids>  (959) 
[94, 95]

>  <energy_score>  (959) 
1091.075040321307

>  <distance_score>  (959) 
13.480549075807618

>  <path>  (959) 
/opt/xchem-fragalysis-2/maxwin/BulkDock/SCRATCH/511016/C9249-P95/C9249-P95.minimised.mol

>  <scratch_subdir>  (959) 
/opt/xchem-fragalysis-2/maxwin/BulkDock/SCRATCH/511016/C9249-P95

>  <fragmenstein_runtime>  (959) 
24.78155016899109

>  <fragmenstein_outcome>  (959) 
too moved

>  <fragmenstein_mode>  (959) 
expansion

>  <fragmenstein_error>  (959) 


$$$$
C9252-P94
     RDKit          3D

 46 48  0  0  0  0  0  0  0  0999 V2000
   -5.8586   -4.9859   15.0884 C   0  0  0  0  0  0  0  0  0  0  0  0
   -6.2355   -5.8954   13.9195 C   0  0  0  0  0  0  0  0  0  0  0  0
   -5.1152   -6.0438   12.8258 C   0  0  0  0  0  0  0  0  0  0  0  0
   -4.5383   -7.2966   13.1225 N   0  0  0  0  0  0  0  0  0  0  0  0
   -3.4309   -6.7846   11.7743 C   0  0  0  0  0  0  0  0  0  0  0  0
   -3.7413   -5.6661   10.1804 C   0  0  0  0  0  0  0  0  0  0  0  0
   -3.4750   -4.3262    8.8960 N   0  0  0  0  0  0  0  0  0  0  0  0
   -3.6469   -4.3994    7.4743 C   0  0  0  0  0  0  0  0  0  0  0  0
   -4.8001   -3.4572    7.0286 C   0  0  0  0  0  0  0  0  0  0  0  0
   -4.4275   -2.1466    7.6564 C   0  0  0  0  0  0  0  0  0  0  0  0
   -3.2832   -2.5619    8.6264 C   0  0  0  0  0  0  0  0  0  0  0  0
   -3.7465   -7.7538   14.3402 C   0  0  0  0  0  0  0  0  0  0  0  0
   -3.3551   -7.1131   15.2872 O   0  0  0  0  0  0  0  0  0  0  0  0
   -3.4498   -9.2555   14.5708 C   0  0  0  0  0  0  0  0  0  0  0  0
   -2.4153  -10.0155   14.0368 C   0  0  0  0  0  0  0  0  0  0  0  0
   -1.9640  -11.1982   14.6844 C   0  0  0  0  0  0  0  0  0  0  0  0
   -0.5366  -12.1572   13.8691 Br  0  0  0  0  0  0  0  0  0  0  0  0
   -2.4531  -11.6784   15.9132 C   0  0  0  0  0  0  0  0  0  0  0  0
   -3.5081  -10.9622   16.4625 C   0  0  0  0  0  0  0  0  0  0  0  0
   -4.2417  -11.1817   17.6133 N   0  0  0  0  0  0  0  0  0  0  0  0
   -5.2020  -10.2219   17.6760 C   0  0  0  0  0  0  0  0  0  0  0  0
   -5.1124   -9.3942   16.6532 N   0  0  0  0  0  0  0  0  0  0  0  0
   -4.0422   -9.8153   15.8435 C   0  0  0  0  0  0  0  0  0  0  0  0
   -5.5763   -3.9871   14.7427 H   0  0  0  0  0  0  0  0  0  0  0  0
   -6.7139   -4.8762   15.7633 H   0  0  0  0  0  0  0  0  0  0  0  0
   -5.0301   -5.3899   15.6715 H   0  0  0  0  0  0  0  0  0  0  0  0
   -6.5327   -6.8725   14.3231 H   0  0  0  0  0  0  0  0  0  0  0  0
   -7.1371   -5.4743   13.4813 H   0  0  0  0  0  0  0  0  0  0  0  0
   -4.3818   -5.3270   13.1480 H   0  0  0  0  0  0  0  0  0  0  0  0
   -5.5743   -5.9986   11.8479 H   0  0  0  0  0  0  0  0  0  0  0  0
   -3.0789   -7.7562   11.4133 H   0  0  0  0  0  0  0  0  0  0  0  0
   -2.5892   -6.3073   12.2996 H   0  0  0  0  0  0  0  0  0  0  0  0
   -2.7167   -5.9609   10.0148 H   0  0  0  0  0  0  0  0  0  0  0  0
   -3.9169   -4.9273   10.9088 H   0  0  0  0  0  0  0  0  0  0  0  0
   -3.4892   -5.3222    6.9981 H   0  0  0  0  0  0  0  0  0  0  0  0
   -2.7210   -4.0003    7.1537 H   0  0  0  0  0  0  0  0  0  0  0  0
   -5.7954   -3.7557    7.3734 H   0  0  0  0  0  0  0  0  0  0  0  0
   -4.9234   -3.4362    5.9597 H   0  0  0  0  0  0  0  0  0  0  0  0
   -4.0566   -1.3157    7.0661 H   0  0  0  0  0  0  0  0  0  0  0  0
   -5.3007   -1.7186    8.1674 H   0  0  0  0  0  0  0  0  0  0  0  0
   -2.3191   -2.2458    8.2444 H   0  0  0  0  0  0  0  0  0  0  0  0
   -3.5885   -1.8665    9.3727 H   0  0  0  0  0  0  0  0  0  0  0  0
   -1.8971   -9.6502   13.1541 H   0  0  0  0  0  0  0  0  0  0  0  0
   -2.0523  -12.5695   16.3829 H   0  0  0  0  0  0  0  0  0  0  0  0
   -4.1084  -11.9371   18.2702 H   0  0  0  0  0  0  0  0  0  0  0  0
   -5.9333  -10.1711   18.4712 H   0  0  0  0  0  0  0  0  0  0  0  0
  1  2  1  0
  2  3  1  0
  3  4  1  0
  4  5  1  0
  5  6  1  0
  6  7  1  0
  7  8  1  0
  8  9  1  0
  9 10  1  0
 10 11  1  0
  4 12  1  0
 12 13  2  0
 12 14  1  0
 14 15  2  0
 15 16  1  0
 16 17  1  0
 16 18  2  0
 18 19  1  0
 19 20  1  0
 20 21  1  0
 21 22  2  0
 22 23  1  0
 11  7  1  0
 23 14  1  0
 23 19  2  0
  1 24  1  0
  1 25  1  0
  1 26  1  0
  2 27  1  0
  2 28  1  0
  3 29  1  0
  3 30  1  0
  5 31  1  0
  5 32  1  0
  6 33  1  0
  6 34  1  0
  8 35  1  0
  8 36  1  0
  9 37  1  0
  9 38  1  0
 10 39  1  0
 10 40  1  0
 11 41  1  0
 11 42  1  0
 15 43  1  0
 18 44  1  0
 20 45  1  0
 21 46  1  0
M  END
>  <Energy>  (960) 
437.22027122912397

>  <compound_id>  (960) 
9252

>  <target_id>  (960) 
1

>  <reference_id>  (960) 
94

>  <inspiration_ids>  (960) 
[94, 95]

>  <energy_score>  (960) 
365.78618918372206

>  <distance_score>  (960) 
15.69077715421273

>  <path>  (960) 
/opt/xchem-fragalysis-2/maxwin/BulkDock/SCRATCH/511016/C9252-P94/C9252-P94.minimised.mol

>  <scratch_subdir>  (960) 
/opt/xchem-fragalysis-2/maxwin/BulkDock/SCRATCH/511016/C9252-P94

>  <fragmenstein_runtime>  (960) 
25.704769372940063

>  <fragmenstein_outcome>  (960) 
too moved

>  <fragmenstein_mode>  (960) 
expansion

>  <fragmenstein_error>  (960) 


$$$$
C9252-P95
     RDKit          3D

 46 48  0  0  0  0  0  0  0  0999 V2000
   -7.0303   -6.7329   25.2300 C   0  0  0  0  0  0  0  0  0  0  0  0
   -7.9051   -6.6075   23.9867 C   0  0  0  0  0  0  0  0  0  0  0  0
   -9.4159   -6.7763   24.2838 C   0  0  0  0  0  0  0  0  0  0  0  0
  -10.0385   -8.1147   24.2347 N   0  0  0  0  0  0  0  0  0  0  0  0
   -9.9936   -7.8089   22.6117 C   0  0  0  0  0  0  0  0  0  0  0  0
  -10.1857   -6.3954   21.7220 C   0  0  0  0  0  0  0  0  0  0  0  0
   -9.9462   -6.3763   20.2338 N   0  0  0  0  0  0  0  0  0  0  0  0
  -10.4884   -5.1134   19.6563 C   0  0  0  0  0  0  0  0  0  0  0  0
   -9.7005   -4.8716   18.3829 C   0  0  0  0  0  0  0  0  0  0  0  0
   -8.3050   -5.2706   18.8102 C   0  0  0  0  0  0  0  0  0  0  0  0
   -8.5123   -6.3715   19.8610 C   0  0  0  0  0  0  0  0  0  0  0  0
   -9.4677   -9.4571   24.5263 C   0  0  0  0  0  0  0  0  0  0  0  0
   -8.3354   -9.7831   24.7841 O   0  0  0  0  0  0  0  0  0  0  0  0
  -10.4333  -10.6863   24.6529 C   0  0  0  0  0  0  0  0  0  0  0  0
  -11.7996  -10.6069   24.3339 C   0  0  0  0  0  0  0  0  0  0  0  0
  -12.7030  -11.6492   24.6250 C   0  0  0  0  0  0  0  0  0  0  0  0
  -14.5399  -11.3907   24.2240 Br  0  0  0  0  0  0  0  0  0  0  0  0
  -12.3265  -12.8346   25.2587 C   0  0  0  0  0  0  0  0  0  0  0  0
  -10.9883  -12.9234   25.6200 C   0  0  0  0  0  0  0  0  0  0  0  0
  -10.3293  -13.8996   26.3351 N   0  0  0  0  0  0  0  0  0  0  0  0
   -9.0342  -13.5133   26.4643 C   0  0  0  0  0  0  0  0  0  0  0  0
   -8.8244  -12.3570   25.8757 N   0  0  0  0  0  0  0  0  0  0  0  0
  -10.0368  -11.9211   25.3414 C   0  0  0  0  0  0  0  0  0  0  0  0
   -7.1470   -7.7071   25.7108 H   0  0  0  0  0  0  0  0  0  0  0  0
   -7.2788   -5.9578   25.9623 H   0  0  0  0  0  0  0  0  0  0  0  0
   -5.9760   -6.6120   24.9610 H   0  0  0  0  0  0  0  0  0  0  0  0
   -7.7461   -5.6015   23.5799 H   0  0  0  0  0  0  0  0  0  0  0  0
   -7.5408   -7.3124   23.2343 H   0  0  0  0  0  0  0  0  0  0  0  0
   -9.4702   -6.6021   25.3719 H   0  0  0  0  0  0  0  0  0  0  0  0
  -10.0831   -5.9584   23.9849 H   0  0  0  0  0  0  0  0  0  0  0  0
  -10.8732   -8.3716   22.2933 H   0  0  0  0  0  0  0  0  0  0  0  0
   -9.1006   -8.3103   22.2352 H   0  0  0  0  0  0  0  0  0  0  0  0
  -11.2318   -6.1087   21.8985 H   0  0  0  0  0  0  0  0  0  0  0  0
   -9.5659   -5.5927   22.1326 H   0  0  0  0  0  0  0  0  0  0  0  0
  -10.3291   -4.2686   20.3400 H   0  0  0  0  0  0  0  0  0  0  0  0
  -11.5615   -5.1932   19.4611 H   0  0  0  0  0  0  0  0  0  0  0  0
   -9.7498   -3.8297   18.0531 H   0  0  0  0  0  0  0  0  0  0  0  0
  -10.0739   -5.5022   17.5740 H   0  0  0  0  0  0  0  0  0  0  0  0
   -7.6719   -5.5842   17.9765 H   0  0  0  0  0  0  0  0  0  0  0  0
   -7.8147   -4.4115   19.2855 H   0  0  0  0  0  0  0  0  0  0  0  0
   -7.8506   -6.1928   20.7166 H   0  0  0  0  0  0  0  0  0  0  0  0
   -8.2514   -7.3514   19.4493 H   0  0  0  0  0  0  0  0  0  0  0  0
  -12.1835   -9.6944   23.8814 H   0  0  0  0  0  0  0  0  0  0  0  0
  -13.0450  -13.6095   25.5017 H   0  0  0  0  0  0  0  0  0  0  0  0
  -10.7465  -14.7278   26.7342 H   0  0  0  0  0  0  0  0  0  0  0  0
   -8.2919  -14.0948   26.9949 H   0  0  0  0  0  0  0  0  0  0  0  0
  1  2  1  0
  2  3  1  0
  3  4  1  0
  4  5  1  0
  5  6  1  0
  6  7  1  0
  7  8  1  0
  8  9  1  0
  9 10  1  0
 10 11  1  0
  4 12  1  0
 12 13  2  0
 12 14  1  0
 14 15  2  0
 15 16  1  0
 16 17  1  0
 16 18  2  0
 18 19  1  0
 19 20  1  0
 20 21  1  0
 21 22  2  0
 22 23  1  0
 11  7  1  0
 23 14  1  0
 23 19  2  0
  1 24  1  0
  1 25  1  0
  1 26  1  0
  2 27  1  0
  2 28  1  0
  3 29  1  0
  3 30  1  0
  5 31  1  0
  5 32  1  0
  6 33  1  0
  6 34  1  0
  8 35  1  0
  8 36  1  0
  9 37  1  0
  9 38  1  0
 10 39  1  0
 10 40  1  0
 11 41  1  0
 11 42  1  0
 15 43  1  0
 18 44  1  0
 20 45  1  0
 21 46  1  0
M  END
>  <Energy>  (961) 
159.70743571973776

>  <compound_id>  (961) 
9252

>  <target_id>  (961) 
1

>  <reference_id>  (961) 
95

>  <inspiration_ids>  (961) 
[94, 95]

>  <energy_score>  (961) 
88.27335367433591

>  <distance_score>  (961) 
15.314800491665324

>  <path>  (961) 
/opt/xchem-fragalysis-2/maxwin/BulkDock/SCRATCH/511016/C9252-P95/C9252-P95.minimised.mol

>  <scratch_subdir>  (961) 
/opt/xchem-fragalysis-2/maxwin/BulkDock/SCRATCH/511016/C9252-P95

>  <fragmenstein_runtime>  (961) 
25.640042304992676

>  <fragmenstein_outcome>  (961) 
too moved

>  <fragmenstein_mode>  (961) 
expansion

>  <fragmenstein_error>  (961) 


$$$$
C9253-P94
     RDKit          3D

 40 42  0  0  0  0  0  0  0  0999 V2000
    0.4316   -7.6521    8.0925 C   0  0  0  0  0  0  0  0  0  0  0  0
   -0.9161   -7.3747    8.6083 N   0  0  0  0  0  0  0  0  0  0  0  0
   -0.9054   -6.1467    7.2300 C   0  0  0  0  0  0  0  0  0  0  0  0
   -2.5787   -5.0247    6.9648 C   0  0  0  0  0  0  0  0  0  0  0  0
   -3.5734   -3.6613    7.4738 N   0  0  0  0  0  0  0  0  0  0  0  0
   -3.1468   -2.3542    8.0462 C   0  0  0  0  0  0  0  0  0  0  0  0
   -4.2640   -1.3190    7.8704 C   0  0  0  0  0  0  0  0  0  0  0  0
   -5.4656   -2.0378    7.3264 C   0  0  0  0  0  0  0  0  0  0  0  0
   -4.9577   -3.4267    6.9179 C   0  0  0  0  0  0  0  0  0  0  0  0
   -0.8662   -7.1687   10.1473 C   0  0  0  0  0  0  0  0  0  0  0  0
   -0.7150   -6.1515   10.7976 O   0  0  0  0  0  0  0  0  0  0  0  0
   -1.1808   -8.4759   11.1648 C   0  0  0  0  0  0  0  0  0  0  0  0
   -1.4429   -9.7836   10.9507 N   0  0  0  0  0  0  0  0  0  0  0  0
   -1.8805  -10.3881   12.1744 C   0  0  0  0  0  0  0  0  0  0  0  0
   -2.3017  -11.7133   12.4990 C   0  0  0  0  0  0  0  0  0  0  0  0
   -2.6889  -12.0596   13.8167 C   0  0  0  0  0  0  0  0  0  0  0  0
   -2.6630  -11.0928   14.8167 C   0  0  0  0  0  0  0  0  0  0  0  0
   -3.1038  -11.5648   16.5927 Br  0  0  0  0  0  0  0  0  0  0  0  0
   -2.2747   -9.7687   14.5281 C   0  0  0  0  0  0  0  0  0  0  0  0
   -1.8818   -9.4521   13.1961 C   0  0  0  0  0  0  0  0  0  0  0  0
   -1.4373   -8.2884   12.5628 N   0  0  0  0  0  0  0  0  0  0  0  0
    0.8094   -8.4940    8.6892 H   0  0  0  0  0  0  0  0  0  0  0  0
    1.1428   -6.8430    8.2985 H   0  0  0  0  0  0  0  0  0  0  0  0
    0.4497   -8.0206    7.0615 H   0  0  0  0  0  0  0  0  0  0  0  0
    0.0304   -5.5806    7.2268 H   0  0  0  0  0  0  0  0  0  0  0  0
   -0.9147   -6.7513    6.3045 H   0  0  0  0  0  0  0  0  0  0  0  0
   -3.2868   -5.4505    7.6706 H   0  0  0  0  0  0  0  0  0  0  0  0
   -2.8199   -5.4727    6.0056 H   0  0  0  0  0  0  0  0  0  0  0  0
   -2.9761   -2.4749    9.0756 H   0  0  0  0  0  0  0  0  0  0  0  0
   -2.2068   -1.8788    7.7436 H   0  0  0  0  0  0  0  0  0  0  0  0
   -3.9509   -0.5694    7.1516 H   0  0  0  0  0  0  0  0  0  0  0  0
   -4.4916   -0.7973    8.8044 H   0  0  0  0  0  0  0  0  0  0  0  0
   -6.2525   -2.0633    8.0778 H   0  0  0  0  0  0  0  0  0  0  0  0
   -5.9629   -1.5019    6.5126 H   0  0  0  0  0  0  0  0  0  0  0  0
   -4.9646   -3.5464    5.8467 H   0  0  0  0  0  0  0  0  0  0  0  0
   -5.7778   -4.0633    7.2365 H   0  0  0  0  0  0  0  0  0  0  0  0
   -2.3167  -12.4595   11.7098 H   0  0  0  0  0  0  0  0  0  0  0  0
   -2.9923  -13.0807   14.0299 H   0  0  0  0  0  0  0  0  0  0  0  0
   -2.2528   -9.0071   15.3014 H   0  0  0  0  0  0  0  0  0  0  0  0
   -1.3517   -7.3802   12.9922 H   0  0  0  0  0  0  0  0  0  0  0  0
  1  2  1  0
  2  3  1  0
  3  4  1  0
  4  5  1  0
  5  6  1  0
  6  7  1  0
  7  8  1  0
  8  9  1  0
  2 10  1  0
 10 11  2  0
 10 12  1  0
 12 13  2  0
 13 14  1  0
 14 15  2  0
 15 16  1  0
 16 17  2  0
 17 18  1  0
 17 19  1  0
 19 20  2  0
 20 21  1  0
  9  5  1  0
 21 12  1  0
 20 14  1  0
  1 22  1  0
  1 23  1  0
  1 24  1  0
  3 25  1  0
  3 26  1  0
  4 27  1  0
  4 28  1  0
  6 29  1  0
  6 30  1  0
  7 31  1  0
  7 32  1  0
  8 33  1  0
  8 34  1  0
  9 35  1  0
  9 36  1  0
 15 37  1  0
 16 38  1  0
 19 39  1  0
 21 40  1  0
M  END
>  <Energy>  (962) 
309.97197933679223

>  <compound_id>  (962) 
9253

>  <target_id>  (962) 
1

>  <reference_id>  (962) 
94

>  <inspiration_ids>  (962) 
[94, 95]

>  <energy_score>  (962) 
249.89028321798588

>  <distance_score>  (962) 
17.71786041686489

>  <path>  (962) 
/opt/xchem-fragalysis-2/maxwin/BulkDock/SCRATCH/511016/C9253-P94/C9253-P94.minimised.mol

>  <scratch_subdir>  (962) 
/opt/xchem-fragalysis-2/maxwin/BulkDock/SCRATCH/511016/C9253-P94

>  <fragmenstein_runtime>  (962) 
20.157164812088013

>  <fragmenstein_outcome>  (962) 
too moved

>  <fragmenstein_mode>  (962) 
expansion

>  <fragmenstein_error>  (962) 


$$$$
C9253-P95
     RDKit          3D

 40 42  0  0  0  0  0  0  0  0999 V2000
   -9.2173  -14.9672   13.4967 C   0  0  0  0  0  0  0  0  0  0  0  0
  -10.3940  -14.0483   13.5334 N   0  0  0  0  0  0  0  0  0  0  0  0
   -9.9210  -13.7815   12.0734 C   0  0  0  0  0  0  0  0  0  0  0  0
   -8.8363  -12.6565   11.7429 C   0  0  0  0  0  0  0  0  0  0  0  0
   -9.2719  -11.2613   11.5798 N   0  0  0  0  0  0  0  0  0  0  0  0
  -10.1489  -11.0235   10.4332 C   0  0  0  0  0  0  0  0  0  0  0  0
   -9.2611  -10.6545    9.2631 C   0  0  0  0  0  0  0  0  0  0  0  0
   -7.9292  -10.2475    9.8669 C   0  0  0  0  0  0  0  0  0  0  0  0
   -8.1209  -10.3679   11.3672 C   0  0  0  0  0  0  0  0  0  0  0  0
  -10.3510  -13.0981   14.8802 C   0  0  0  0  0  0  0  0  0  0  0  0
   -9.8161  -12.0172   14.9202 O   0  0  0  0  0  0  0  0  0  0  0  0
  -11.2992  -13.4712   16.5588 C   0  0  0  0  0  0  0  0  0  0  0  0
  -12.8779  -14.4515   16.1341 N   0  0  0  0  0  0  0  0  0  0  0  0
  -13.9183  -14.8293   17.8756 C   0  0  0  0  0  0  0  0  0  0  0  0
  -15.2005  -15.6772   18.0211 C   0  0  0  0  0  0  0  0  0  0  0  0
  -15.2016  -16.8368   18.9397 C   0  0  0  0  0  0  0  0  0  0  0  0
  -14.0637  -17.2735   19.7569 C   0  0  0  0  0  0  0  0  0  0  0  0
  -14.3034  -18.8520   20.8007 Br  0  0  0  0  0  0  0  0  0  0  0  0
  -12.7488  -16.6538   19.8130 C   0  0  0  0  0  0  0  0  0  0  0  0
  -12.4874  -15.4494   19.0214 C   0  0  0  0  0  0  0  0  0  0  0  0
  -10.8388  -14.3347   18.3928 N   0  0  0  0  0  0  0  0  0  0  0  0
   -9.5714  -15.9730   13.2388 H   0  0  0  0  0  0  0  0  0  0  0  0
   -8.3504  -14.7959   12.8279 H   0  0  0  0  0  0  0  0  0  0  0  0
   -8.6494  -14.8464   14.4089 H   0  0  0  0  0  0  0  0  0  0  0  0
  -10.8576  -13.4015   11.6410 H   0  0  0  0  0  0  0  0  0  0  0  0
   -9.8009  -14.6871   11.4461 H   0  0  0  0  0  0  0  0  0  0  0  0
   -8.0848  -12.6839   12.5395 H   0  0  0  0  0  0  0  0  0  0  0  0
   -8.3270  -12.9824   10.8260 H   0  0  0  0  0  0  0  0  0  0  0  0
  -10.8044  -11.8626   10.1828 H   0  0  0  0  0  0  0  0  0  0  0  0
  -10.8155  -10.1915   10.6731 H   0  0  0  0  0  0  0  0  0  0  0  0
   -9.7115   -9.8560    8.6722 H   0  0  0  0  0  0  0  0  0  0  0  0
   -9.1182  -11.5179    8.6026 H   0  0  0  0  0  0  0  0  0  0  0  0
   -7.1465  -10.9354    9.5258 H   0  0  0  0  0  0  0  0  0  0  0  0
   -7.6296   -9.2388    9.5710 H   0  0  0  0  0  0  0  0  0  0  0  0
   -7.2067  -10.6985   11.8735 H   0  0  0  0  0  0  0  0  0  0  0  0
   -8.3636   -9.3994   11.7949 H   0  0  0  0  0  0  0  0  0  0  0  0
  -16.0056  -15.5101   17.3118 H   0  0  0  0  0  0  0  0  0  0  0  0
  -16.1146  -17.4356   18.9621 H   0  0  0  0  0  0  0  0  0  0  0  0
  -11.9456  -17.1702   20.2824 H   0  0  0  0  0  0  0  0  0  0  0  0
  -10.5845  -13.5556   18.9794 H   0  0  0  0  0  0  0  0  0  0  0  0
  1  2  1  0
  2  3  1  0
  3  4  1  0
  4  5  1  0
  5  6  1  0
  6  7  1  0
  7  8  1  0
  8  9  1  0
  2 10  1  0
 10 11  2  0
 10 12  1  0
 12 13  2  0
 13 14  1  0
 14 15  2  0
 15 16  1  0
 16 17  2  0
 17 18  1  0
 17 19  1  0
 19 20  2  0
 20 21  1  0
  9  5  1  0
 21 12  1  0
 20 14  1  0
  1 22  1  0
  1 23  1  0
  1 24  1  0
  3 25  1  0
  3 26  1  0
  4 27  1  0
  4 28  1  0
  6 29  1  0
  6 30  1  0
  7 31  1  0
  7 32  1  0
  8 33  1  0
  8 34  1  0
  9 35  1  0
  9 36  1  0
 15 37  1  0
 16 38  1  0
 19 39  1  0
 21 40  1  0
M  END
>  <Energy>  (963) 
953.88194309272092

>  <compound_id>  (963) 
9253

>  <target_id>  (963) 
1

>  <reference_id>  (963) 
95

>  <inspiration_ids>  (963) 
[94, 95]

>  <energy_score>  (963) 
893.800246973897

>  <distance_score>  (963) 
14.499436603600573

>  <path>  (963) 
/opt/xchem-fragalysis-2/maxwin/BulkDock/SCRATCH/511016/C9253-P95/C9253-P95.minimised.mol

>  <scratch_subdir>  (963) 
/opt/xchem-fragalysis-2/maxwin/BulkDock/SCRATCH/511016/C9253-P95

>  <fragmenstein_runtime>  (963) 
24.225423097610474

>  <fragmenstein_outcome>  (963) 
too moved

>  <fragmenstein_mode>  (963) 
expansion

>  <fragmenstein_error>  (963) 


$$$$
C9254-P94
     RDKit          3D

 45 47  0  0  0  0  0  0  0  0999 V2000
  -11.6882   -7.8968   17.6022 C   0  0  0  0  0  0  0  0  0  0  0  0
  -10.2229   -7.5257   17.3226 C   0  0  0  0  0  0  0  0  0  0  0  0
  -10.1131   -7.1050   15.8787 N   0  0  0  0  0  0  0  0  0  0  0  0
   -9.0827   -6.0594   15.6311 C   0  0  0  0  0  0  0  0  0  0  0  0
   -9.5948   -4.8646   14.7717 C   0  0  0  0  0  0  0  0  0  0  0  0
   -8.4997   -4.2822   14.0772 O   0  0  0  0  0  0  0  0  0  0  0  0
  -10.2883   -3.8183   15.6683 C   0  0  0  0  0  0  0  0  0  0  0  0
  -11.1607   -2.9268   14.9166 N   0  0  0  0  0  0  0  0  0  0  0  0
  -12.2918   -2.4031   15.6656 C   0  0  0  0  0  0  0  0  0  0  0  0
  -12.8532   -1.3524   14.7187 C   0  0  0  0  0  0  0  0  0  0  0  0
  -11.6656   -0.9156   13.8759 C   0  0  0  0  0  0  0  0  0  0  0  0
  -10.4945   -1.7474   14.3912 C   0  0  0  0  0  0  0  0  0  0  0  0
   -9.3241   -8.6888   17.7487 C   0  0  0  0  0  0  0  0  0  0  0  0
   -8.4325   -8.7055   18.7327 N   0  0  0  0  0  0  0  0  0  0  0  0
   -7.6511   -9.8128   18.4941 C   0  0  0  0  0  0  0  0  0  0  0  0
   -6.4293  -10.1878   19.0741 C   0  0  0  0  0  0  0  0  0  0  0  0
   -5.7590  -11.2800   18.5393 C   0  0  0  0  0  0  0  0  0  0  0  0
   -6.2966  -11.9686   17.4509 C   0  0  0  0  0  0  0  0  0  0  0  0
   -7.5533  -11.6758   16.9344 C   0  0  0  0  0  0  0  0  0  0  0  0
   -8.2047  -10.5866   17.4881 C   0  0  0  0  0  0  0  0  0  0  0  0
   -9.3499   -9.9220   17.1302 N   0  0  0  0  0  0  0  0  0  0  0  0
  -12.3527   -7.0482   17.4035 H   0  0  0  0  0  0  0  0  0  0  0  0
  -11.8263   -8.1813   18.6511 H   0  0  0  0  0  0  0  0  0  0  0  0
  -12.0207   -8.7386   16.9835 H   0  0  0  0  0  0  0  0  0  0  0  0
   -9.9952   -6.6676   17.9679 H   0  0  0  0  0  0  0  0  0  0  0  0
  -11.0179   -6.7185   15.6069 H   0  0  0  0  0  0  0  0  0  0  0  0
   -8.6820   -5.6605   16.5719 H   0  0  0  0  0  0  0  0  0  0  0  0
   -8.2265   -6.5420   15.1506 H   0  0  0  0  0  0  0  0  0  0  0  0
  -10.3081   -5.2368   14.0335 H   0  0  0  0  0  0  0  0  0  0  0  0
   -8.5517   -4.6414   13.1746 H   0  0  0  0  0  0  0  0  0  0  0  0
  -10.9075   -4.3660   16.3908 H   0  0  0  0  0  0  0  0  0  0  0  0
   -9.5495   -3.2541   16.2516 H   0  0  0  0  0  0  0  0  0  0  0  0
  -11.9749   -1.9376   16.6077 H   0  0  0  0  0  0  0  0  0  0  0  0
  -13.0370   -3.1727   15.8905 H   0  0  0  0  0  0  0  0  0  0  0  0
  -13.6366   -1.7727   14.0777 H   0  0  0  0  0  0  0  0  0  0  0  0
  -13.2904   -0.5135   15.2699 H   0  0  0  0  0  0  0  0  0  0  0  0
  -11.4837    0.1576   13.9911 H   0  0  0  0  0  0  0  0  0  0  0  0
  -11.8615   -1.1150   12.8166 H   0  0  0  0  0  0  0  0  0  0  0  0
   -9.9671   -1.2027   15.1840 H   0  0  0  0  0  0  0  0  0  0  0  0
   -9.7886   -1.9939   13.6050 H   0  0  0  0  0  0  0  0  0  0  0  0
   -5.9808   -9.5864   19.8562 H   0  0  0  0  0  0  0  0  0  0  0  0
   -4.7692  -11.5150   18.9192 H   0  0  0  0  0  0  0  0  0  0  0  0
   -5.7126  -12.7235   16.9306 H   0  0  0  0  0  0  0  0  0  0  0  0
   -7.9075  -12.1687   16.0385 H   0  0  0  0  0  0  0  0  0  0  0  0
   -9.9388  -10.1500   16.3425 H   0  0  0  0  0  0  0  0  0  0  0  0
  1  2  1  0
  2  3  1  0
  3  4  1  0
  4  5  1  0
  5  6  1  0
  5  7  1  0
  7  8  1  0
  8  9  1  0
  9 10  1  0
 10 11  1  0
 11 12  1  0
  2 13  1  0
 13 14  2  0
 14 15  1  0
 15 16  2  0
 16 17  1  0
 17 18  2  0
 18 19  1  0
 19 20  2  0
 20 21  1  0
 12  8  1  0
 21 13  1  0
 20 15  1  0
  1 22  1  0
  1 23  1  0
  1 24  1  0
  2 25  1  0
  3 26  1  0
  4 27  1  0
  4 28  1  0
  5 29  1  0
  6 30  1  0
  7 31  1  0
  7 32  1  0
  9 33  1  0
  9 34  1  0
 10 35  1  0
 10 36  1  0
 11 37  1  0
 11 38  1  0
 12 39  1  0
 12 40  1  0
 16 41  1  0
 17 42  1  0
 18 43  1  0
 19 44  1  0
 21 45  1  0
M  END
>  <Energy>  (964) 
77.798014117866273

>  <compound_id>  (964) 
9254

>  <target_id>  (964) 
1

>  <reference_id>  (964) 
94

>  <inspiration_ids>  (964) 
[94, 95]

>  <energy_score>  (964) 
-19.97747714838971

>  <distance_score>  (964) 
15.300991004901302

>  <path>  (964) 
/opt/xchem-fragalysis-2/maxwin/BulkDock/SCRATCH/511016/C9254-P94/C9254-P94.minimised.mol

>  <scratch_subdir>  (964) 
/opt/xchem-fragalysis-2/maxwin/BulkDock/SCRATCH/511016/C9254-P94

>  <fragmenstein_runtime>  (964) 
21.9891619682312

>  <fragmenstein_outcome>  (964) 
too moved

>  <fragmenstein_mode>  (964) 
expansion

>  <fragmenstein_error>  (964) 


$$$$
C9254-P95
     RDKit          3D

 45 47  0  0  0  0  0  0  0  0999 V2000
  -10.2258  -13.9483   19.5047 C   0  0  0  0  0  0  0  0  0  0  0  0
  -11.1723  -13.7616   21.4589 C   0  0  0  0  0  0  0  0  0  0  0  0
   -9.5973  -12.9919   20.5820 N   0  0  0  0  0  0  0  0  0  0  0  0
   -9.1304  -12.1320   18.8518 C   0  0  0  0  0  0  0  0  0  0  0  0
   -8.3188  -10.7184   18.1299 C   0  0  0  0  0  0  0  0  0  0  0  0
   -9.0413   -9.4827   18.2822 O   0  0  0  0  0  0  0  0  0  0  0  0
   -8.1660  -10.8744   16.5410 C   0  0  0  0  0  0  0  0  0  0  0  0
   -7.8119   -9.6550   15.7542 N   0  0  0  0  0  0  0  0  0  0  0  0
   -7.8623   -9.9343   14.2943 C   0  0  0  0  0  0  0  0  0  0  0  0
   -6.6660   -9.2259   13.6650 C   0  0  0  0  0  0  0  0  0  0  0  0
   -6.1634   -8.3120   14.7610 C   0  0  0  0  0  0  0  0  0  0  0  0
   -6.4689   -9.1220   16.0138 C   0  0  0  0  0  0  0  0  0  0  0  0
  -11.5058  -15.4295   22.8631 C   0  0  0  0  0  0  0  0  0  0  0  0
  -12.4129  -16.6276   23.6568 N   0  0  0  0  0  0  0  0  0  0  0  0
  -11.6791  -18.0234   24.7853 C   0  0  0  0  0  0  0  0  0  0  0  0
  -11.5889  -20.1210   25.0150 C   0  0  0  0  0  0  0  0  0  0  0  0
  -10.3124  -20.7380   26.5179 C   0  0  0  0  0  0  0  0  0  0  0  0
   -9.4289  -19.0263   27.4199 C   0  0  0  0  0  0  0  0  0  0  0  0
   -9.7993  -17.3927   26.8340 C   0  0  0  0  0  0  0  0  0  0  0  0
  -10.8709  -16.9879   25.5419 C   0  0  0  0  0  0  0  0  0  0  0  0
  -10.7294  -16.8070   23.9020 N   0  0  0  0  0  0  0  0  0  0  0  0
   -9.1384  -14.3748   19.3753 H   0  0  0  0  0  0  0  0  0  0  0  0
  -10.4381  -14.9954   19.1645 H   0  0  0  0  0  0  0  0  0  0  0  0
  -10.5896  -13.3662   18.6736 H   0  0  0  0  0  0  0  0  0  0  0  0
  -11.1127  -12.8447   22.0254 H   0  0  0  0  0  0  0  0  0  0  0  0
   -8.8825  -13.6727   20.7581 H   0  0  0  0  0  0  0  0  0  0  0  0
   -8.4250  -12.8738   18.4701 H   0  0  0  0  0  0  0  0  0  0  0  0
  -10.0562  -11.9221   18.2907 H   0  0  0  0  0  0  0  0  0  0  0  0
   -7.3264  -10.6145   18.5815 H   0  0  0  0  0  0  0  0  0  0  0  0
   -8.8691   -8.9700   17.4628 H   0  0  0  0  0  0  0  0  0  0  0  0
   -9.1556  -11.1744   16.1783 H   0  0  0  0  0  0  0  0  0  0  0  0
   -7.4692  -11.6964   16.3362 H   0  0  0  0  0  0  0  0  0  0  0  0
   -8.8071   -9.5558   13.8959 H   0  0  0  0  0  0  0  0  0  0  0  0
   -7.8106  -11.0055   14.0642 H   0  0  0  0  0  0  0  0  0  0  0  0
   -5.8904   -9.9654   13.4282 H   0  0  0  0  0  0  0  0  0  0  0  0
   -6.9030   -8.7002   12.7404 H   0  0  0  0  0  0  0  0  0  0  0  0
   -6.7132   -7.3651   14.7725 H   0  0  0  0  0  0  0  0  0  0  0  0
   -5.0972   -8.0902   14.6587 H   0  0  0  0  0  0  0  0  0  0  0  0
   -5.7332   -9.9284   16.1268 H   0  0  0  0  0  0  0  0  0  0  0  0
   -6.4472   -8.4982   16.9122 H   0  0  0  0  0  0  0  0  0  0  0  0
  -12.2426  -20.7734   24.4340 H   0  0  0  0  0  0  0  0  0  0  0  0
  -10.6939  -21.5936   27.1543 H   0  0  0  0  0  0  0  0  0  0  0  0
   -8.4992  -19.0399   28.0560 H   0  0  0  0  0  0  0  0  0  0  0  0
   -9.2466  -16.5492   27.2546 H   0  0  0  0  0  0  0  0  0  0  0  0
   -9.7384  -16.6814   23.9731 H   0  0  0  0  0  0  0  0  0  0  0  0
  1  2  1  0
  2  3  1  0
  3  4  1  0
  4  5  1  0
  5  6  1  0
  5  7  1  0
  7  8  1  0
  8  9  1  0
  9 10  1  0
 10 11  1  0
 11 12  1  0
  2 13  1  0
 13 14  2  0
 14 15  1  0
 15 16  2  0
 16 17  1  0
 17 18  2  0
 18 19  1  0
 19 20  2  0
 20 21  1  0
 12  8  1  0
 21 13  1  0
 20 15  1  0
  1 22  1  0
  1 23  1  0
  1 24  1  0
  2 25  1  0
  3 26  1  0
  4 27  1  0
  4 28  1  0
  5 29  1  0
  6 30  1  0
  7 31  1  0
  7 32  1  0
  9 33  1  0
  9 34  1  0
 10 35  1  0
 10 36  1  0
 11 37  1  0
 11 38  1  0
 12 39  1  0
 12 40  1  0
 16 41  1  0
 17 42  1  0
 18 43  1  0
 19 44  1  0
 21 45  1  0
M  END
>  <Energy>  (965) 
1765.2080880525107

>  <compound_id>  (965) 
9254

>  <target_id>  (965) 
1

>  <reference_id>  (965) 
95

>  <inspiration_ids>  (965) 
[94, 95]

>  <energy_score>  (965) 
1667.4325967862792

>  <distance_score>  (965) 
12.678167958291006

>  <path>  (965) 
/opt/xchem-fragalysis-2/maxwin/BulkDock/SCRATCH/511016/C9254-P95/C9254-P95.minimised.mol

>  <scratch_subdir>  (965) 
/opt/xchem-fragalysis-2/maxwin/BulkDock/SCRATCH/511016/C9254-P95

>  <fragmenstein_runtime>  (965) 
23.03012752532959

>  <fragmenstein_outcome>  (965) 
too moved

>  <fragmenstein_mode>  (965) 
expansion

>  <fragmenstein_error>  (965) 


$$$$
C9255-P94
     RDKit          3D

 48 50  0  0  0  0  0  0  0  0999 V2000
  -14.9329  -16.4347   20.6741 C   0  0  0  0  0  0  0  0  0  0  0  0
  -16.5239  -15.7721   20.3864 C   0  0  0  0  0  0  0  0  0  0  0  0
  -16.5519  -14.6598   18.7296 N   0  0  0  0  0  0  0  0  0  0  0  0
  -15.1464  -14.1715   17.3519 C   0  0  0  0  0  0  0  0  0  0  0  0
  -14.2058  -13.4162   15.6251 C   0  0  0  0  0  0  0  0  0  0  0  0
  -13.0243  -14.0668   15.0263 O   0  0  0  0  0  0  0  0  0  0  0  0
  -14.6521  -12.2702   14.2610 C   0  0  0  0  0  0  0  0  0  0  0  0
  -13.5624  -12.0336   13.2206 N   0  0  0  0  0  0  0  0  0  0  0  0
  -14.0862  -11.3364   12.0257 C   0  0  0  0  0  0  0  0  0  0  0  0
  -12.8567  -10.7634   11.3235 C   0  0  0  0  0  0  0  0  0  0  0  0
  -11.7473  -10.8609   12.3590 C   0  0  0  0  0  0  0  0  0  0  0  0
  -12.4772  -11.1318   13.6671 C   0  0  0  0  0  0  0  0  0  0  0  0
  -17.6972  -17.0631   21.5370 C   0  0  0  0  0  0  0  0  0  0  0  0
  -17.5893  -18.4521   21.5524 N   0  0  0  0  0  0  0  0  0  0  0  0
  -18.2903  -19.1460   22.5497 C   0  0  0  0  0  0  0  0  0  0  0  0
  -18.1555  -20.4343   23.1173 C   0  0  0  0  0  0  0  0  0  0  0  0
  -18.8303  -20.7206   24.3077 C   0  0  0  0  0  0  0  0  0  0  0  0
  -19.7027  -19.7789   24.8531 C   0  0  0  0  0  0  0  0  0  0  0  0
  -19.9700  -18.5649   24.1951 C   0  0  0  0  0  0  0  0  0  0  0  0
  -19.2257  -18.3027   23.0385 C   0  0  0  0  0  0  0  0  0  0  0  0
  -19.2851  -17.3962   21.9578 N   0  0  0  0  0  0  0  0  0  0  0  0
  -20.5312  -16.6962   21.7279 C   0  0  0  0  0  0  0  0  0  0  0  0
  -13.9164  -16.0594   20.9360 H   0  0  0  0  0  0  0  0  0  0  0  0
  -14.6295  -17.1718   19.9705 H   0  0  0  0  0  0  0  0  0  0  0  0
  -15.1024  -16.5447   21.6835 H   0  0  0  0  0  0  0  0  0  0  0  0
  -16.7824  -14.9768   21.0087 H   0  0  0  0  0  0  0  0  0  0  0  0
  -17.0975  -13.8707   19.0533 H   0  0  0  0  0  0  0  0  0  0  0  0
  -15.6933  -14.7911   16.6224 H   0  0  0  0  0  0  0  0  0  0  0  0
  -14.3287  -14.5874   17.8993 H   0  0  0  0  0  0  0  0  0  0  0  0
  -13.6735  -12.4812   15.8557 H   0  0  0  0  0  0  0  0  0  0  0  0
  -12.7261  -13.4654   14.3182 H   0  0  0  0  0  0  0  0  0  0  0  0
  -15.5807  -12.6378   13.8058 H   0  0  0  0  0  0  0  0  0  0  0  0
  -14.8386  -11.2577   14.6173 H   0  0  0  0  0  0  0  0  0  0  0  0
  -14.7619  -10.5183   12.3065 H   0  0  0  0  0  0  0  0  0  0  0  0
  -14.6340  -12.0255   11.3752 H   0  0  0  0  0  0  0  0  0  0  0  0
  -12.5962  -11.3392   10.4291 H   0  0  0  0  0  0  0  0  0  0  0  0
  -13.0429   -9.7304   11.0206 H   0  0  0  0  0  0  0  0  0  0  0  0
  -11.1286   -9.9674   12.4083 H   0  0  0  0  0  0  0  0  0  0  0  0
  -11.0890  -11.7042   12.1142 H   0  0  0  0  0  0  0  0  0  0  0  0
  -12.8717  -10.1972   14.0855 H   0  0  0  0  0  0  0  0  0  0  0  0
  -11.8125  -11.5922   14.4035 H   0  0  0  0  0  0  0  0  0  0  0  0
  -17.4921  -21.1660   22.6767 H   0  0  0  0  0  0  0  0  0  0  0  0
  -18.6902  -21.6816   24.7960 H   0  0  0  0  0  0  0  0  0  0  0  0
  -20.2427  -20.0174   25.7680 H   0  0  0  0  0  0  0  0  0  0  0  0
  -20.7297  -17.8821   24.5590 H   0  0  0  0  0  0  0  0  0  0  0  0
  -20.5646  -16.2081   20.7570 H   0  0  0  0  0  0  0  0  0  0  0  0
  -20.7244  -15.9867   22.5355 H   0  0  0  0  0  0  0  0  0  0  0  0
  -21.3313  -17.4450   21.7262 H   0  0  0  0  0  0  0  0  0  0  0  0
  1  2  1  0
  2  3  1  0
  3  4  1  0
  4  5  1  0
  5  6  1  0
  5  7  1  0
  7  8  1  0
  8  9  1  0
  9 10  1  0
 10 11  1  0
 11 12  1  0
  2 13  1  0
 13 14  2  0
 14 15  1  0
 15 16  2  0
 16 17  1  0
 17 18  2  0
 18 19  1  0
 19 20  2  0
 20 21  1  0
 21 22  1  0
 12  8  1  0
 21 13  1  0
 20 15  1  0
  1 23  1  0
  1 24  1  0
  1 25  1  0
  2 26  1  0
  3 27  1  0
  4 28  1  0
  4 29  1  0
  5 30  1  0
  6 31  1  0
  7 32  1  0
  7 33  1  0
  9 34  1  0
  9 35  1  0
 10 36  1  0
 10 37  1  0
 11 38  1  0
 11 39  1  0
 12 40  1  0
 12 41  1  0
 16 42  1  0
 17 43  1  0
 18 44  1  0
 19 45  1  0
 22 46  1  0
 22 47  1  0
 22 48  1  0
M  END
>  <Energy>  (966) 
686.73272621889646

>  <compound_id>  (966) 
9255

>  <target_id>  (966) 
1

>  <reference_id>  (966) 
94

>  <inspiration_ids>  (966) 
[94, 95]

>  <energy_score>  (966) 
561.94203491274

>  <distance_score>  (966) 
14.545245595618402

>  <path>  (966) 
/opt/xchem-fragalysis-2/maxwin/BulkDock/SCRATCH/511016/C9255-P94/C9255-P94.minimised.mol

>  <scratch_subdir>  (966) 
/opt/xchem-fragalysis-2/maxwin/BulkDock/SCRATCH/511016/C9255-P94

>  <fragmenstein_runtime>  (966) 
28.60646629333496

>  <fragmenstein_outcome>  (966) 
too moved

>  <fragmenstein_mode>  (966) 
expansion

>  <fragmenstein_error>  (966) 


$$$$
C9255-P95
     RDKit          3D

 48 50  0  0  0  0  0  0  0  0999 V2000
   -5.9410  -17.2047   13.6579 C   0  0  0  0  0  0  0  0  0  0  0  0
   -6.4046  -16.4261   14.8926 C   0  0  0  0  0  0  0  0  0  0  0  0
   -5.8601  -14.9655   14.6943 N   0  0  0  0  0  0  0  0  0  0  0  0
   -6.8021  -13.9191   14.0539 C   0  0  0  0  0  0  0  0  0  0  0  0
   -6.3357  -13.0498   12.7822 C   0  0  0  0  0  0  0  0  0  0  0  0
   -4.9871  -12.5888   12.9422 O   0  0  0  0  0  0  0  0  0  0  0  0
   -7.2146  -11.7751   12.5334 C   0  0  0  0  0  0  0  0  0  0  0  0
   -7.2757  -11.2767   11.1523 N   0  0  0  0  0  0  0  0  0  0  0  0
   -7.7419   -9.8879   11.0763 C   0  0  0  0  0  0  0  0  0  0  0  0
   -7.2788   -9.4077    9.7069 C   0  0  0  0  0  0  0  0  0  0  0  0
   -6.5157  -10.5854    9.1338 C   0  0  0  0  0  0  0  0  0  0  0  0
   -6.0377  -11.3050   10.3779 C   0  0  0  0  0  0  0  0  0  0  0  0
   -6.0903  -17.3871   16.2392 C   0  0  0  0  0  0  0  0  0  0  0  0
   -5.0590  -17.3431   17.0908 N   0  0  0  0  0  0  0  0  0  0  0  0
   -5.2426  -18.3411   18.0715 C   0  0  0  0  0  0  0  0  0  0  0  0
   -4.5111  -18.6675   19.2381 C   0  0  0  0  0  0  0  0  0  0  0  0
   -4.9573  -19.6888   20.1011 C   0  0  0  0  0  0  0  0  0  0  0  0
   -6.0830  -20.4377   19.7820 C   0  0  0  0  0  0  0  0  0  0  0  0
   -6.7831  -20.1791   18.5992 C   0  0  0  0  0  0  0  0  0  0  0  0
   -6.3677  -19.0888   17.7930 C   0  0  0  0  0  0  0  0  0  0  0  0
   -6.8847  -18.4934   16.6449 N   0  0  0  0  0  0  0  0  0  0  0  0
   -8.0428  -19.0531   15.9979 C   0  0  0  0  0  0  0  0  0  0  0  0
   -6.2514  -16.7044   12.7338 H   0  0  0  0  0  0  0  0  0  0  0  0
   -6.3602  -18.2156   13.6385 H   0  0  0  0  0  0  0  0  0  0  0  0
   -4.8495  -17.3021   13.6437 H   0  0  0  0  0  0  0  0  0  0  0  0
   -7.4841  -16.3429   14.8903 H   0  0  0  0  0  0  0  0  0  0  0  0
   -5.6429  -14.6486   15.6440 H   0  0  0  0  0  0  0  0  0  0  0  0
   -7.0194  -13.2092   14.8619 H   0  0  0  0  0  0  0  0  0  0  0  0
   -7.7526  -14.4012   13.7988 H   0  0  0  0  0  0  0  0  0  0  0  0
   -6.3627  -13.7178   11.9138 H   0  0  0  0  0  0  0  0  0  0  0  0
   -4.5078  -13.3467   13.3320 H   0  0  0  0  0  0  0  0  0  0  0  0
   -6.8429  -10.9873   13.2020 H   0  0  0  0  0  0  0  0  0  0  0  0
   -8.2440  -12.0018   12.8354 H   0  0  0  0  0  0  0  0  0  0  0  0
   -8.8301   -9.8501   11.1739 H   0  0  0  0  0  0  0  0  0  0  0  0
   -7.2871   -9.2652   11.8546 H   0  0  0  0  0  0  0  0  0  0  0  0
   -6.6113   -8.5458    9.8081 H   0  0  0  0  0  0  0  0  0  0  0  0
   -8.1262   -9.1276    9.0837 H   0  0  0  0  0  0  0  0  0  0  0  0
   -7.1923  -11.2397    8.5684 H   0  0  0  0  0  0  0  0  0  0  0  0
   -5.7130  -10.2959    8.4583 H   0  0  0  0  0  0  0  0  0  0  0  0
   -5.2221  -10.7601   10.8684 H   0  0  0  0  0  0  0  0  0  0  0  0
   -5.7093  -12.3193   10.1345 H   0  0  0  0  0  0  0  0  0  0  0  0
   -3.6224  -18.0946   19.4818 H   0  0  0  0  0  0  0  0  0  0  0  0
   -4.4084  -19.8924   21.0166 H   0  0  0  0  0  0  0  0  0  0  0  0
   -6.4224  -21.2271   20.4476 H   0  0  0  0  0  0  0  0  0  0  0  0
   -7.6616  -20.7669   18.3483 H   0  0  0  0  0  0  0  0  0  0  0  0
   -8.8971  -18.9924   16.6602 H   0  0  0  0  0  0  0  0  0  0  0  0
   -7.8320  -20.0969   15.7479 H   0  0  0  0  0  0  0  0  0  0  0  0
   -8.2553  -18.5124   15.0758 H   0  0  0  0  0  0  0  0  0  0  0  0
  1  2  1  0
  2  3  1  0
  3  4  1  0
  4  5  1  0
  5  6  1  0
  5  7  1  0
  7  8  1  0
  8  9  1  0
  9 10  1  0
 10 11  1  0
 11 12  1  0
  2 13  1  0
 13 14  2  0
 14 15  1  0
 15 16  2  0
 16 17  1  0
 17 18  2  0
 18 19  1  0
 19 20  2  0
 20 21  1  0
 21 22  1  0
 12  8  1  0
 21 13  1  0
 20 15  1  0
  1 23  1  0
  1 24  1  0
  1 25  1  0
  2 26  1  0
  3 27  1  0
  4 28  1  0
  4 29  1  0
  5 30  1  0
  6 31  1  0
  7 32  1  0
  7 33  1  0
  9 34  1  0
  9 35  1  0
 10 36  1  0
 10 37  1  0
 11 38  1  0
 11 39  1  0
 12 40  1  0
 12 41  1  0
 16 42  1  0
 17 43  1  0
 18 44  1  0
 19 45  1  0
 22 46  1  0
 22 47  1  0
 22 48  1  0
M  END
>  <Energy>  (967) 
106.62683405236812

>  <compound_id>  (967) 
9255

>  <target_id>  (967) 
1

>  <reference_id>  (967) 
95

>  <inspiration_ids>  (967) 
[94, 95]

>  <energy_score>  (967) 
-18.163857253780293

>  <distance_score>  (967) 
14.288958653000945

>  <path>  (967) 
/opt/xchem-fragalysis-2/maxwin/BulkDock/SCRATCH/511016/C9255-P95/C9255-P95.minimised.mol

>  <scratch_subdir>  (967) 
/opt/xchem-fragalysis-2/maxwin/BulkDock/SCRATCH/511016/C9255-P95

>  <fragmenstein_runtime>  (967) 
35.193280935287476

>  <fragmenstein_outcome>  (967) 
too moved

>  <fragmenstein_mode>  (967) 
expansion

>  <fragmenstein_error>  (967) 


$$$$
C9256-P94
     RDKit          3D

 40 42  0  0  0  0  0  0  0  0999 V2000
   -7.8454  -13.5008   19.4526 O   0  0  0  0  0  0  0  0  0  0  0  0
   -8.9549  -13.2603   19.1139 C   0  0  0  0  0  0  0  0  0  0  0  0
   -9.3114  -11.7161   18.3859 C   0  0  0  0  0  0  0  0  0  0  0  0
   -8.6944  -11.4479   17.0128 N   0  0  0  0  0  0  0  0  0  0  0  0
   -9.4591  -10.4217   16.2681 C   0  0  0  0  0  0  0  0  0  0  0  0
   -8.5463  -10.0120   15.1209 C   0  0  0  0  0  0  0  0  0  0  0  0
   -7.1441  -10.3313   15.6185 C   0  0  0  0  0  0  0  0  0  0  0  0
   -7.3264  -10.9204   17.0234 C   0  0  0  0  0  0  0  0  0  0  0  0
  -10.1981  -14.1473   19.0903 N   0  0  0  0  0  0  0  0  0  0  0  0
  -10.4232  -16.0646   19.4578 C   0  0  0  0  0  0  0  0  0  0  0  0
  -11.2666  -17.9343   18.7536 C   0  0  0  0  0  0  0  0  0  0  0  0
  -11.9968  -19.8687   19.2348 C   0  0  0  0  0  0  0  0  0  0  0  0
  -11.8790  -21.4970   19.5798 N   0  0  0  0  0  0  0  0  0  0  0  0
  -10.7127  -22.0451   20.2015 C   0  0  0  0  0  0  0  0  0  0  0  0
   -9.5386  -22.7513   19.9302 C   0  0  0  0  0  0  0  0  0  0  0  0
   -8.6148  -22.8322   20.9811 C   0  0  0  0  0  0  0  0  0  0  0  0
   -8.9963  -22.4350   22.2710 C   0  0  0  0  0  0  0  0  0  0  0  0
  -10.2335  -21.8004   22.5234 C   0  0  0  0  0  0  0  0  0  0  0  0
  -10.9025  -21.4969   21.3685 C   0  0  0  0  0  0  0  0  0  0  0  0
  -11.5893  -20.3914   20.9036 N   0  0  0  0  0  0  0  0  0  0  0  0
  -10.3834  -11.7089   18.1813 H   0  0  0  0  0  0  0  0  0  0  0  0
   -9.0008  -10.8442   18.9162 H   0  0  0  0  0  0  0  0  0  0  0  0
   -9.6666   -9.5512   16.9037 H   0  0  0  0  0  0  0  0  0  0  0  0
  -10.4110  -10.8171   15.8994 H   0  0  0  0  0  0  0  0  0  0  0  0
   -8.6607   -8.9520   14.8753 H   0  0  0  0  0  0  0  0  0  0  0  0
   -8.7654  -10.5963   14.2200 H   0  0  0  0  0  0  0  0  0  0  0  0
   -6.5083   -9.4404   15.6412 H   0  0  0  0  0  0  0  0  0  0  0  0
   -6.6723  -11.0642   14.9536 H   0  0  0  0  0  0  0  0  0  0  0  0
   -7.2066  -10.1239   17.7682 H   0  0  0  0  0  0  0  0  0  0  0  0
   -6.5903  -11.7029   17.2307 H   0  0  0  0  0  0  0  0  0  0  0  0
  -10.9519  -13.6202   18.8348 H   0  0  0  0  0  0  0  0  0  0  0  0
  -11.4189  -15.7311   19.7854 H   0  0  0  0  0  0  0  0  0  0  0  0
   -9.3495  -16.0500   19.6494 H   0  0  0  0  0  0  0  0  0  0  0  0
  -11.8527  -17.9265   19.6343 H   0  0  0  0  0  0  0  0  0  0  0  0
  -11.4667  -17.6980   17.7219 H   0  0  0  0  0  0  0  0  0  0  0  0
   -9.2947  -23.1251   18.9449 H   0  0  0  0  0  0  0  0  0  0  0  0
   -7.6472  -23.2975   20.8165 H   0  0  0  0  0  0  0  0  0  0  0  0
   -8.2821  -22.6183   23.0659 H   0  0  0  0  0  0  0  0  0  0  0  0
  -10.5228  -21.3256   23.4380 H   0  0  0  0  0  0  0  0  0  0  0  0
  -12.1637  -19.9912   21.5595 H   0  0  0  0  0  0  0  0  0  0  0  0
  1  2  2  0
  2  3  1  0
  3  4  1  0
  4  5  1  0
  5  6  1  0
  6  7  1  0
  7  8  1  0
  2  9  1  0
  9 10  1  0
 10 11  1  0
 11 12  1  0
 12 13  2  0
 13 14  1  0
 14 15  2  0
 15 16  1  0
 16 17  2  0
 17 18  1  0
 18 19  2  0
 19 20  1  0
  8  4  1  0
 20 12  1  0
 19 14  1  0
  3 21  1  0
  3 22  1  0
  5 23  1  0
  5 24  1  0
  6 25  1  0
  6 26  1  0
  7 27  1  0
  7 28  1  0
  8 29  1  0
  8 30  1  0
  9 31  1  0
 10 32  1  0
 10 33  1  0
 11 34  1  0
 11 35  1  0
 15 36  1  0
 16 37  1  0
 17 38  1  0
 18 39  1  0
 20 40  1  0
M  END
>  <Energy>  (968) 
707.10479265272477

>  <compound_id>  (968) 
9256

>  <target_id>  (968) 
1

>  <reference_id>  (968) 
94

>  <inspiration_ids>  (968) 
[94, 95]

>  <energy_score>  (968) 
635.7035067601976

>  <distance_score>  (968) 
14.46191930251896

>  <path>  (968) 
/opt/xchem-fragalysis-2/maxwin/BulkDock/SCRATCH/511016/C9256-P94/C9256-P94.minimised.mol

>  <scratch_subdir>  (968) 
/opt/xchem-fragalysis-2/maxwin/BulkDock/SCRATCH/511016/C9256-P94

>  <fragmenstein_runtime>  (968) 
20.932661294937134

>  <fragmenstein_outcome>  (968) 
too moved

>  <fragmenstein_mode>  (968) 
expansion

>  <fragmenstein_error>  (968) 


$$$$
C9256-P95
     RDKit          3D

 40 42  0  0  0  0  0  0  0  0999 V2000
   -7.1019  -16.6980   14.1577 O   0  0  0  0  0  0  0  0  0  0  0  0
   -6.2326  -16.3378   14.9027 C   0  0  0  0  0  0  0  0  0  0  0  0
   -5.4471  -14.9807   14.5696 C   0  0  0  0  0  0  0  0  0  0  0  0
   -6.2761  -13.8376   14.0394 N   0  0  0  0  0  0  0  0  0  0  0  0
   -6.8296  -14.0621   12.6930 C   0  0  0  0  0  0  0  0  0  0  0  0
   -7.1803  -12.6649   12.1664 C   0  0  0  0  0  0  0  0  0  0  0  0
   -6.3770  -11.6992   13.0232 C   0  0  0  0  0  0  0  0  0  0  0  0
   -5.4870  -12.5994   13.8752 C   0  0  0  0  0  0  0  0  0  0  0  0
   -5.6991  -16.9614   16.1224 N   0  0  0  0  0  0  0  0  0  0  0  0
   -6.1362  -18.1850   16.8719 C   0  0  0  0  0  0  0  0  0  0  0  0
   -5.1684  -18.6218   18.0113 C   0  0  0  0  0  0  0  0  0  0  0  0
   -5.7146  -19.4240   19.1991 C   0  0  0  0  0  0  0  0  0  0  0  0
   -6.7564  -20.2310   19.2550 N   0  0  0  0  0  0  0  0  0  0  0  0
   -6.7094  -20.8511   20.4911 C   0  0  0  0  0  0  0  0  0  0  0  0
   -7.5606  -21.8059   21.0541 C   0  0  0  0  0  0  0  0  0  0  0  0
   -7.2258  -22.3235   22.3050 C   0  0  0  0  0  0  0  0  0  0  0  0
   -6.0578  -21.9544   22.9718 C   0  0  0  0  0  0  0  0  0  0  0  0
   -5.2329  -20.9599   22.4544 C   0  0  0  0  0  0  0  0  0  0  0  0
   -5.6022  -20.4310   21.2135 C   0  0  0  0  0  0  0  0  0  0  0  0
   -5.0431  -19.4659   20.4132 N   0  0  0  0  0  0  0  0  0  0  0  0
   -4.6485  -15.2385   13.8634 H   0  0  0  0  0  0  0  0  0  0  0  0
   -4.9764  -14.6289   15.4946 H   0  0  0  0  0  0  0  0  0  0  0  0
   -7.7195  -14.6976   12.7152 H   0  0  0  0  0  0  0  0  0  0  0  0
   -6.0870  -14.5249   12.0309 H   0  0  0  0  0  0  0  0  0  0  0  0
   -6.9232  -12.5713   11.1062 H   0  0  0  0  0  0  0  0  0  0  0  0
   -8.2517  -12.4616   12.2742 H   0  0  0  0  0  0  0  0  0  0  0  0
   -7.0533  -11.1167   13.6599 H   0  0  0  0  0  0  0  0  0  0  0  0
   -5.7921  -10.9989   12.4193 H   0  0  0  0  0  0  0  0  0  0  0  0
   -4.5451  -12.7984   13.3481 H   0  0  0  0  0  0  0  0  0  0  0  0
   -5.2567  -12.1368   14.8401 H   0  0  0  0  0  0  0  0  0  0  0  0
   -5.0248  -16.3388   16.5442 H   0  0  0  0  0  0  0  0  0  0  0  0
   -7.1331  -17.9632   17.2615 H   0  0  0  0  0  0  0  0  0  0  0  0
   -6.2589  -18.9886   16.1378 H   0  0  0  0  0  0  0  0  0  0  0  0
   -4.6769  -17.7324   18.4150 H   0  0  0  0  0  0  0  0  0  0  0  0
   -4.3641  -19.2160   17.5579 H   0  0  0  0  0  0  0  0  0  0  0  0
   -8.4597  -22.1094   20.5311 H   0  0  0  0  0  0  0  0  0  0  0  0
   -7.9218  -22.9943   22.7804 H   0  0  0  0  0  0  0  0  0  0  0  0
   -5.8201  -22.4028   23.9323 H   0  0  0  0  0  0  0  0  0  0  0  0
   -4.3494  -20.6216   22.9826 H   0  0  0  0  0  0  0  0  0  0  0  0
   -4.2125  -18.9395   20.6353 H   0  0  0  0  0  0  0  0  0  0  0  0
  1  2  2  0
  2  3  1  0
  3  4  1  0
  4  5  1  0
  5  6  1  0
  6  7  1  0
  7  8  1  0
  2  9  1  0
  9 10  1  0
 10 11  1  0
 11 12  1  0
 12 13  2  0
 13 14  1  0
 14 15  2  0
 15 16  1  0
 16 17  2  0
 17 18  1  0
 18 19  2  0
 19 20  1  0
  8  4  1  0
 20 12  1  0
 19 14  1  0
  3 21  1  0
  3 22  1  0
  5 23  1  0
  5 24  1  0
  6 25  1  0
  6 26  1  0
  7 27  1  0
  7 28  1  0
  8 29  1  0
  8 30  1  0
  9 31  1  0
 10 32  1  0
 10 33  1  0
 11 34  1  0
 11 35  1  0
 15 36  1  0
 16 37  1  0
 17 38  1  0
 18 39  1  0
 20 40  1  0
M  END
>  <Energy>  (969) 
65.577951378477493

>  <compound_id>  (969) 
9256

>  <target_id>  (969) 
1

>  <reference_id>  (969) 
95

>  <inspiration_ids>  (969) 
[94, 95]

>  <energy_score>  (969) 
-5.823334514050202

>  <distance_score>  (969) 
14.702758522855296

>  <path>  (969) 
/opt/xchem-fragalysis-2/maxwin/BulkDock/SCRATCH/511016/C9256-P95/C9256-P95.minimised.mol

>  <scratch_subdir>  (969) 
/opt/xchem-fragalysis-2/maxwin/BulkDock/SCRATCH/511016/C9256-P95

>  <fragmenstein_runtime>  (969) 
35.97941470146179

>  <fragmenstein_outcome>  (969) 
too moved

>  <fragmenstein_mode>  (969) 
expansion

>  <fragmenstein_error>  (969) 


$$$$
C9257-P94
     RDKit          3D

 43 45  0  0  0  0  0  0  0  0999 V2000
   -7.5931  -22.3904   21.7145 C   0  0  0  0  0  0  0  0  0  0  0  0
   -6.4740  -21.5722   22.1137 N   0  0  0  0  0  0  0  0  0  0  0  0
   -5.9391  -20.4698   21.4495 C   0  0  0  0  0  0  0  0  0  0  0  0
   -6.2124  -20.0915   19.9778 C   0  0  0  0  0  0  0  0  0  0  0  0
   -5.4006  -18.8759   19.4159 C   0  0  0  0  0  0  0  0  0  0  0  0
   -5.7604  -18.3496   18.0560 N   0  0  0  0  0  0  0  0  0  0  0  0
   -4.9572  -17.6037   17.0638 C   0  0  0  0  0  0  0  0  0  0  0  0
   -3.7924  -17.3036   17.0668 O   0  0  0  0  0  0  0  0  0  0  0  0
   -5.8291  -17.1379   15.7872 C   0  0  0  0  0  0  0  0  0  0  0  0
   -5.8334  -15.6557   15.4541 N   0  0  0  0  0  0  0  0  0  0  0  0
   -6.6166  -15.3519   14.2348 C   0  0  0  0  0  0  0  0  0  0  0  0
   -6.2705  -13.9039   13.9035 C   0  0  0  0  0  0  0  0  0  0  0  0
   -4.8554  -13.7404   14.4346 C   0  0  0  0  0  0  0  0  0  0  0  0
   -4.5225  -15.0786   15.1139 C   0  0  0  0  0  0  0  0  0  0  0  0
   -5.1483  -19.8175   22.2853 N   0  0  0  0  0  0  0  0  0  0  0  0
   -5.0654  -20.5701   23.4310 C   0  0  0  0  0  0  0  0  0  0  0  0
   -4.3613  -20.3198   24.6188 C   0  0  0  0  0  0  0  0  0  0  0  0
   -4.4067  -21.2568   25.6511 C   0  0  0  0  0  0  0  0  0  0  0  0
   -5.1089  -22.4441   25.4814 C   0  0  0  0  0  0  0  0  0  0  0  0
   -5.8084  -22.7306   24.2992 C   0  0  0  0  0  0  0  0  0  0  0  0
   -5.7987  -21.7398   23.3064 C   0  0  0  0  0  0  0  0  0  0  0  0
   -8.1696  -21.8768   20.9436 H   0  0  0  0  0  0  0  0  0  0  0  0
   -8.2334  -22.5854   22.5769 H   0  0  0  0  0  0  0  0  0  0  0  0
   -7.1980  -23.3279   21.3151 H   0  0  0  0  0  0  0  0  0  0  0  0
   -7.2769  -19.8844   19.8754 H   0  0  0  0  0  0  0  0  0  0  0  0
   -5.9993  -20.9673   19.3529 H   0  0  0  0  0  0  0  0  0  0  0  0
   -4.3301  -19.1082   19.3970 H   0  0  0  0  0  0  0  0  0  0  0  0
   -5.5298  -18.0267   20.0946 H   0  0  0  0  0  0  0  0  0  0  0  0
   -6.7293  -18.3458   17.7681 H   0  0  0  0  0  0  0  0  0  0  0  0
   -6.8698  -17.4375   15.9523 H   0  0  0  0  0  0  0  0  0  0  0  0
   -5.4520  -17.7133   14.9326 H   0  0  0  0  0  0  0  0  0  0  0  0
   -7.6878  -15.4700   14.3868 H   0  0  0  0  0  0  0  0  0  0  0  0
   -6.3169  -16.0049   13.4045 H   0  0  0  0  0  0  0  0  0  0  0  0
   -6.3350  -13.7046   12.8296 H   0  0  0  0  0  0  0  0  0  0  0  0
   -6.9473  -13.2151   14.4225 H   0  0  0  0  0  0  0  0  0  0  0  0
   -4.1433  -13.5179   13.6336 H   0  0  0  0  0  0  0  0  0  0  0  0
   -4.8200  -12.9184   15.1588 H   0  0  0  0  0  0  0  0  0  0  0  0
   -3.9777  -15.7230   14.4121 H   0  0  0  0  0  0  0  0  0  0  0  0
   -3.8946  -14.9174   15.9915 H   0  0  0  0  0  0  0  0  0  0  0  0
   -3.7794  -19.4097   24.7127 H   0  0  0  0  0  0  0  0  0  0  0  0
   -3.8627  -21.0682   26.5732 H   0  0  0  0  0  0  0  0  0  0  0  0
   -5.1044  -23.1512   26.2975 H   0  0  0  0  0  0  0  0  0  0  0  0
   -6.3687  -23.6498   24.1830 H   0  0  0  0  0  0  0  0  0  0  0  0
  1  2  1  0
  2  3  1  0
  3  4  1  0
  4  5  1  0
  5  6  1  0
  6  7  1  0
  7  8  2  0
  7  9  1  0
  9 10  1  0
 10 11  1  0
 11 12  1  0
 12 13  1  0
 13 14  1  0
  3 15  2  0
 15 16  1  0
 16 17  2  0
 17 18  1  0
 18 19  2  0
 19 20  1  0
 20 21  2  0
 21  2  1  0
 14 10  1  0
 21 16  1  0
  1 22  1  0
  1 23  1  0
  1 24  1  0
  4 25  1  0
  4 26  1  0
  5 27  1  0
  5 28  1  0
  6 29  1  0
  9 30  1  0
  9 31  1  0
 11 32  1  0
 11 33  1  0
 12 34  1  0
 12 35  1  0
 13 36  1  0
 13 37  1  0
 14 38  1  0
 14 39  1  0
 17 40  1  0
 18 41  1  0
 19 42  1  0
 20 43  1  0
M  END
>  <Energy>  (970) 
71.554756578663543

>  <compound_id>  (970) 
9257

>  <target_id>  (970) 
1

>  <reference_id>  (970) 
94

>  <inspiration_ids>  (970) 
[94, 95]

>  <energy_score>  (970) 
-8.007876044475665

>  <distance_score>  (970) 
15.618264097803413

>  <path>  (970) 
/opt/xchem-fragalysis-2/maxwin/BulkDock/SCRATCH/511016/C9257-P94/C9257-P94.minimised.mol

>  <scratch_subdir>  (970) 
/opt/xchem-fragalysis-2/maxwin/BulkDock/SCRATCH/511016/C9257-P94

>  <fragmenstein_runtime>  (970) 
25.452342748641968

>  <fragmenstein_outcome>  (970) 
too moved

>  <fragmenstein_mode>  (970) 
expansion

>  <fragmenstein_error>  (970) 


$$$$
C9257-P95
     RDKit          3D

 43 45  0  0  0  0  0  0  0  0999 V2000
  -13.7288  -15.4961   26.2433 C   0  0  0  0  0  0  0  0  0  0  0  0
  -13.9744  -16.6019   25.3208 N   0  0  0  0  0  0  0  0  0  0  0  0
  -13.1976  -16.5876   23.7857 C   0  0  0  0  0  0  0  0  0  0  0  0
  -11.8556  -15.3663   22.7198 C   0  0  0  0  0  0  0  0  0  0  0  0
  -11.1900  -13.5951   21.5026 C   0  0  0  0  0  0  0  0  0  0  0  0
  -10.5995  -13.3999   19.4896 N   0  0  0  0  0  0  0  0  0  0  0  0
  -11.1453  -12.1180   18.0889 C   0  0  0  0  0  0  0  0  0  0  0  0
  -11.8601  -11.1718   18.3523 O   0  0  0  0  0  0  0  0  0  0  0  0
  -10.9190  -12.1849   16.1627 C   0  0  0  0  0  0  0  0  0  0  0  0
  -11.8507  -11.1102   15.3471 N   0  0  0  0  0  0  0  0  0  0  0  0
  -11.4368   -9.7449   15.0727 C   0  0  0  0  0  0  0  0  0  0  0  0
  -12.5519   -9.2536   14.1563 C   0  0  0  0  0  0  0  0  0  0  0  0
  -13.7946   -9.9490   14.6624 C   0  0  0  0  0  0  0  0  0  0  0  0
  -13.2887  -11.0968   15.5355 C   0  0  0  0  0  0  0  0  0  0  0  0
  -13.7370  -18.0688   23.7126 N   0  0  0  0  0  0  0  0  0  0  0  0
  -14.1259  -19.3238   24.9866 C   0  0  0  0  0  0  0  0  0  0  0  0
  -12.6378  -20.5770   25.6812 C   0  0  0  0  0  0  0  0  0  0  0  0
  -12.5480  -20.8879   27.6363 C   0  0  0  0  0  0  0  0  0  0  0  0
  -13.6058  -19.7946   28.9073 C   0  0  0  0  0  0  0  0  0  0  0  0
  -14.7251  -18.1899   28.0351 C   0  0  0  0  0  0  0  0  0  0  0  0
  -14.6949  -18.0077   26.1305 C   0  0  0  0  0  0  0  0  0  0  0  0
  -12.7776  -15.0347   25.9837 H   0  0  0  0  0  0  0  0  0  0  0  0
  -13.6772  -15.8636   27.2670 H   0  0  0  0  0  0  0  0  0  0  0  0
  -14.5572  -14.7944   26.1346 H   0  0  0  0  0  0  0  0  0  0  0  0
  -11.1672  -16.0262   23.1278 H   0  0  0  0  0  0  0  0  0  0  0  0
  -12.2456  -14.8042   23.5237 H   0  0  0  0  0  0  0  0  0  0  0  0
  -10.1162  -13.3206   21.5587 H   0  0  0  0  0  0  0  0  0  0  0  0
  -11.2198  -12.6267   22.0198 H   0  0  0  0  0  0  0  0  0  0  0  0
   -9.9588  -14.0478   19.1099 H   0  0  0  0  0  0  0  0  0  0  0  0
  -10.0366  -12.0308   15.4813 H   0  0  0  0  0  0  0  0  0  0  0  0
  -11.4521  -12.9879   15.7110 H   0  0  0  0  0  0  0  0  0  0  0  0
  -10.4725   -9.6941   14.5603 H   0  0  0  0  0  0  0  0  0  0  0  0
  -11.4190   -9.1368   15.9838 H   0  0  0  0  0  0  0  0  0  0  0  0
  -12.6809   -8.1682   14.1851 H   0  0  0  0  0  0  0  0  0  0  0  0
  -12.3602   -9.5637   13.1226 H   0  0  0  0  0  0  0  0  0  0  0  0
  -14.4084   -9.2634   15.2576 H   0  0  0  0  0  0  0  0  0  0  0  0
  -14.4073  -10.3092   13.8290 H   0  0  0  0  0  0  0  0  0  0  0  0
  -13.5767  -10.9000   16.5723 H   0  0  0  0  0  0  0  0  0  0  0  0
  -13.7553  -12.0267   15.1961 H   0  0  0  0  0  0  0  0  0  0  0  0
  -12.2381  -21.2586   24.9244 H   0  0  0  0  0  0  0  0  0  0  0  0
  -11.9779  -21.7432   28.0110 H   0  0  0  0  0  0  0  0  0  0  0  0
  -13.2978  -20.3352   29.7319 H   0  0  0  0  0  0  0  0  0  0  0  0
  -15.3533  -17.3843   28.4713 H   0  0  0  0  0  0  0  0  0  0  0  0
  1  2  1  0
  2  3  1  0
  3  4  1  0
  4  5  1  0
  5  6  1  0
  6  7  1  0
  7  8  2  0
  7  9  1  0
  9 10  1  0
 10 11  1  0
 11 12  1  0
 12 13  1  0
 13 14  1  0
  3 15  2  0
 15 16  1  0
 16 17  2  0
 17 18  1  0
 18 19  2  0
 19 20  1  0
 20 21  2  0
 21  2  1  0
 14 10  1  0
 21 16  1  0
  1 22  1  0
  1 23  1  0
  1 24  1  0
  4 25  1  0
  4 26  1  0
  5 27  1  0
  5 28  1  0
  6 29  1  0
  9 30  1  0
  9 31  1  0
 11 32  1  0
 11 33  1  0
 12 34  1  0
 12 35  1  0
 13 36  1  0
 13 37  1  0
 14 38  1  0
 14 39  1  0
 17 40  1  0
 18 41  1  0
 19 42  1  0
 20 43  1  0
M  END
>  <Energy>  (971) 
1669.388412026306

>  <compound_id>  (971) 
9257

>  <target_id>  (971) 
1

>  <reference_id>  (971) 
95

>  <inspiration_ids>  (971) 
[94, 95]

>  <energy_score>  (971) 
1589.8257794031815

>  <distance_score>  (971) 
13.075728967002632

>  <path>  (971) 
/opt/xchem-fragalysis-2/maxwin/BulkDock/SCRATCH/511016/C9257-P95/C9257-P95.minimised.mol

>  <scratch_subdir>  (971) 
/opt/xchem-fragalysis-2/maxwin/BulkDock/SCRATCH/511016/C9257-P95

>  <fragmenstein_runtime>  (971) 
35.43758463859558

>  <fragmenstein_outcome>  (971) 
too moved

>  <fragmenstein_mode>  (971) 
expansion

>  <fragmenstein_error>  (971) 


$$$$
C9258-P94
     RDKit          3D

 40 42  0  0  0  0  0  0  0  0999 V2000
  -12.7942  -11.2434   18.1468 O   0  0  0  0  0  0  0  0  0  0  0  0
  -11.6260  -11.1007   17.8882 C   0  0  0  0  0  0  0  0  0  0  0  0
  -11.4229   -9.6325   16.9873 C   0  0  0  0  0  0  0  0  0  0  0  0
  -11.4618   -8.2919   17.6985 N   0  0  0  0  0  0  0  0  0  0  0  0
  -10.2800   -7.4207   17.5185 C   0  0  0  0  0  0  0  0  0  0  0  0
  -10.3822   -6.8025   16.1234 C   0  0  0  0  0  0  0  0  0  0  0  0
  -11.8757   -6.7916   15.8345 C   0  0  0  0  0  0  0  0  0  0  0  0
  -12.5042   -7.4152   17.0812 C   0  0  0  0  0  0  0  0  0  0  0  0
  -10.2696  -12.1700   18.4749 N   0  0  0  0  0  0  0  0  0  0  0  0
  -10.2619  -13.6647   19.7112 C   0  0  0  0  0  0  0  0  0  0  0  0
  -11.1579  -14.0155   21.7086 C   0  0  0  0  0  0  0  0  0  0  0  0
  -11.6622  -15.4441   23.2289 C   0  0  0  0  0  0  0  0  0  0  0  0
  -11.6594  -16.0241   24.9544 N   0  0  0  0  0  0  0  0  0  0  0  0
  -10.2726  -17.1819   25.6663 C   0  0  0  0  0  0  0  0  0  0  0  0
   -9.5492  -18.3715   27.0953 C   0  0  0  0  0  0  0  0  0  0  0  0
   -9.8986  -20.4715   26.8593 C   0  0  0  0  0  0  0  0  0  0  0  0
  -10.1898  -21.3490   27.9266 F   0  0  0  0  0  0  0  0  0  0  0  0
  -11.0060  -20.6995   25.2256 C   0  0  0  0  0  0  0  0  0  0  0  0
  -10.4089  -19.8028   23.7146 C   0  0  0  0  0  0  0  0  0  0  0  0
  -10.2520  -17.8267   24.0565 C   0  0  0  0  0  0  0  0  0  0  0  0
  -11.5834  -16.7595   23.6017 N   0  0  0  0  0  0  0  0  0  0  0  0
  -12.4791   -9.6892   16.6476 H   0  0  0  0  0  0  0  0  0  0  0  0
  -11.1283   -9.5831   15.9246 H   0  0  0  0  0  0  0  0  0  0  0  0
  -10.3598   -6.6099   18.2579 H   0  0  0  0  0  0  0  0  0  0  0  0
   -9.3177   -7.8797   17.7505 H   0  0  0  0  0  0  0  0  0  0  0  0
   -9.8566   -7.4063   15.3782 H   0  0  0  0  0  0  0  0  0  0  0  0
   -9.9585   -5.7935   16.1018 H   0  0  0  0  0  0  0  0  0  0  0  0
  -12.2507   -5.7786   15.6591 H   0  0  0  0  0  0  0  0  0  0  0  0
  -12.1017   -7.3970   14.9518 H   0  0  0  0  0  0  0  0  0  0  0  0
  -12.7475   -6.6215   17.8008 H   0  0  0  0  0  0  0  0  0  0  0  0
  -13.4530   -7.9205   16.8698 H   0  0  0  0  0  0  0  0  0  0  0  0
   -9.4155  -11.8872   18.0547 H   0  0  0  0  0  0  0  0  0  0  0  0
   -9.1553  -13.5510   19.8922 H   0  0  0  0  0  0  0  0  0  0  0  0
  -10.2647  -14.5920   19.1294 H   0  0  0  0  0  0  0  0  0  0  0  0
  -11.7337  -14.8794   21.0897 H   0  0  0  0  0  0  0  0  0  0  0  0
  -11.0519  -12.9910   21.9556 H   0  0  0  0  0  0  0  0  0  0  0  0
   -9.5946  -17.8271   28.0442 H   0  0  0  0  0  0  0  0  0  0  0  0
  -11.7823  -21.4715   25.1023 H   0  0  0  0  0  0  0  0  0  0  0  0
  -10.9560  -20.2200   22.8406 H   0  0  0  0  0  0  0  0  0  0  0  0
  -12.3528  -17.1072   24.1393 H   0  0  0  0  0  0  0  0  0  0  0  0
  1  2  2  0
  2  3  1  0
  3  4  1  0
  4  5  1  0
  5  6  1  0
  6  7  1  0
  7  8  1  0
  2  9  1  0
  9 10  1  0
 10 11  1  0
 11 12  1  0
 12 13  2  0
 13 14  1  0
 14 15  2  0
 15 16  1  0
 16 17  1  0
 16 18  2  0
 18 19  1  0
 19 20  2  0
 20 21  1  0
  8  4  1  0
 21 12  1  0
 20 14  1  0
  3 22  1  0
  3 23  1  0
  5 24  1  0
  5 25  1  0
  6 26  1  0
  6 27  1  0
  7 28  1  0
  7 29  1  0
  8 30  1  0
  8 31  1  0
  9 32  1  0
 10 33  1  0
 10 34  1  0
 11 35  1  0
 11 36  1  0
 15 37  1  0
 18 38  1  0
 19 39  1  0
 21 40  1  0
M  END
>  <Energy>  (972) 
1620.2661334945496

>  <compound_id>  (972) 
9258

>  <target_id>  (972) 
1

>  <reference_id>  (972) 
94

>  <inspiration_ids>  (972) 
[94, 95]

>  <energy_score>  (972) 
1561.009640172302

>  <distance_score>  (972) 
13.135975004750051

>  <path>  (972) 
/opt/xchem-fragalysis-2/maxwin/BulkDock/SCRATCH/511016/C9258-P94/C9258-P94.minimised.mol

>  <scratch_subdir>  (972) 
/opt/xchem-fragalysis-2/maxwin/BulkDock/SCRATCH/511016/C9258-P94

>  <fragmenstein_runtime>  (972) 
21.067999601364136

>  <fragmenstein_outcome>  (972) 
too moved

>  <fragmenstein_mode>  (972) 
expansion

>  <fragmenstein_error>  (972) 


$$$$
C9258-P95
     RDKit          3D

 40 42  0  0  0  0  0  0  0  0999 V2000
  -15.8574  -16.2483   15.7375 O   0  0  0  0  0  0  0  0  0  0  0  0
  -16.1806  -15.5666   16.6736 C   0  0  0  0  0  0  0  0  0  0  0  0
  -16.0719  -13.9664   16.5659 C   0  0  0  0  0  0  0  0  0  0  0  0
  -15.8457  -13.3293   15.2112 N   0  0  0  0  0  0  0  0  0  0  0  0
  -14.6941  -13.8008   14.4274 C   0  0  0  0  0  0  0  0  0  0  0  0
  -14.2317  -12.6253   13.5499 C   0  0  0  0  0  0  0  0  0  0  0  0
  -15.1093  -11.4578   13.9572 C   0  0  0  0  0  0  0  0  0  0  0  0
  -15.6177  -11.8692   15.3317 C   0  0  0  0  0  0  0  0  0  0  0  0
  -16.6072  -15.9498   18.0465 N   0  0  0  0  0  0  0  0  0  0  0  0
  -16.8624  -17.3076   18.6611 C   0  0  0  0  0  0  0  0  0  0  0  0
  -16.2615  -17.4770   20.0963 C   0  0  0  0  0  0  0  0  0  0  0  0
  -16.2318  -18.8442   20.8145 C   0  0  0  0  0  0  0  0  0  0  0  0
  -16.6027  -19.0737   22.0706 N   0  0  0  0  0  0  0  0  0  0  0  0
  -16.1621  -20.3453   22.4103 C   0  0  0  0  0  0  0  0  0  0  0  0
  -16.3060  -21.0888   23.5927 C   0  0  0  0  0  0  0  0  0  0  0  0
  -15.7240  -22.3612   23.6437 C   0  0  0  0  0  0  0  0  0  0  0  0
  -15.9307  -23.1441   24.7095 F   0  0  0  0  0  0  0  0  0  0  0  0
  -14.9651  -22.8704   22.5971 C   0  0  0  0  0  0  0  0  0  0  0  0
  -14.8111  -22.1420   21.4158 C   0  0  0  0  0  0  0  0  0  0  0  0
  -15.4589  -20.9000   21.3479 C   0  0  0  0  0  0  0  0  0  0  0  0
  -15.5726  -19.9645   20.3357 N   0  0  0  0  0  0  0  0  0  0  0  0
  -17.0184  -13.5674   16.9507 H   0  0  0  0  0  0  0  0  0  0  0  0
  -15.2765  -13.6694   17.2547 H   0  0  0  0  0  0  0  0  0  0  0  0
  -13.8644  -14.1218   15.0557 H   0  0  0  0  0  0  0  0  0  0  0  0
  -14.9832  -14.6504   13.8004 H   0  0  0  0  0  0  0  0  0  0  0  0
  -13.1779  -12.4011   13.7509 H   0  0  0  0  0  0  0  0  0  0  0  0
  -14.3365  -12.8451   12.4827 H   0  0  0  0  0  0  0  0  0  0  0  0
  -14.5629  -10.5105   13.9774 H   0  0  0  0  0  0  0  0  0  0  0  0
  -15.9475  -11.3573   13.2572 H   0  0  0  0  0  0  0  0  0  0  0  0
  -14.8615  -11.6434   16.0933 H   0  0  0  0  0  0  0  0  0  0  0  0
  -16.5419  -11.3424   15.5890 H   0  0  0  0  0  0  0  0  0  0  0  0
  -16.8869  -15.1170   18.5525 H   0  0  0  0  0  0  0  0  0  0  0  0
  -17.9505  -17.4237   18.7048 H   0  0  0  0  0  0  0  0  0  0  0  0
  -16.4804  -18.0698   17.9767 H   0  0  0  0  0  0  0  0  0  0  0  0
  -15.2249  -17.1286   20.0723 H   0  0  0  0  0  0  0  0  0  0  0  0
  -16.7928  -16.7811   20.7588 H   0  0  0  0  0  0  0  0  0  0  0  0
  -16.8603  -20.7005   24.4377 H   0  0  0  0  0  0  0  0  0  0  0  0
  -14.5237  -23.8566   22.6997 H   0  0  0  0  0  0  0  0  0  0  0  0
  -14.2462  -22.5418   20.5805 H   0  0  0  0  0  0  0  0  0  0  0  0
  -15.1396  -20.0451   19.4271 H   0  0  0  0  0  0  0  0  0  0  0  0
  1  2  2  0
  2  3  1  0
  3  4  1  0
  4  5  1  0
  5  6  1  0
  6  7  1  0
  7  8  1  0
  2  9  1  0
  9 10  1  0
 10 11  1  0
 11 12  1  0
 12 13  2  0
 13 14  1  0
 14 15  2  0
 15 16  1  0
 16 17  1  0
 16 18  2  0
 18 19  1  0
 19 20  2  0
 20 21  1  0
  8  4  1  0
 21 12  1  0
 20 14  1  0
  3 22  1  0
  3 23  1  0
  5 24  1  0
  5 25  1  0
  6 26  1  0
  6 27  1  0
  7 28  1  0
  7 29  1  0
  8 30  1  0
  8 31  1  0
  9 32  1  0
 10 33  1  0
 10 34  1  0
 11 35  1  0
 11 36  1  0
 15 37  1  0
 18 38  1  0
 19 39  1  0
 21 40  1  0
M  END
>  <Energy>  (973) 
59.551635931452658

>  <compound_id>  (973) 
9258

>  <target_id>  (973) 
1

>  <reference_id>  (973) 
95

>  <inspiration_ids>  (973) 
[94, 95]

>  <energy_score>  (973) 
0.2951426091966596

>  <distance_score>  (973) 
15.724728631410358

>  <path>  (973) 
/opt/xchem-fragalysis-2/maxwin/BulkDock/SCRATCH/511016/C9258-P95/C9258-P95.minimised.mol

>  <scratch_subdir>  (973) 
/opt/xchem-fragalysis-2/maxwin/BulkDock/SCRATCH/511016/C9258-P95

>  <fragmenstein_runtime>  (973) 
25.06568932533264

>  <fragmenstein_outcome>  (973) 
too moved

>  <fragmenstein_mode>  (973) 
expansion

>  <fragmenstein_error>  (973) 


$$$$
C9259-P94
     RDKit          3D

 43 45  0  0  0  0  0  0  0  0999 V2000
  -14.6697  -19.6766   24.7373 C   0  0  0  0  0  0  0  0  0  0  0  0
  -13.3501  -18.7805   24.0539 C   0  0  0  0  0  0  0  0  0  0  0  0
  -12.2250  -20.2700   23.9544 C   0  0  0  0  0  0  0  0  0  0  0  0
  -10.7987  -20.2560   23.5107 C   0  0  0  0  0  0  0  0  0  0  0  0
   -9.9701  -18.6847   23.4990 C   0  0  0  0  0  0  0  0  0  0  0  0
  -10.9378  -17.1120   23.9815 C   0  0  0  0  0  0  0  0  0  0  0  0
  -11.5485  -15.8137   23.0785 N   0  0  0  0  0  0  0  0  0  0  0  0
  -11.9975  -15.9222   21.7165 C   0  0  0  0  0  0  0  0  0  0  0  0
  -11.2647  -15.6041   19.8613 C   0  0  0  0  0  0  0  0  0  0  0  0
   -9.9698  -14.0317   19.3559 C   0  0  0  0  0  0  0  0  0  0  0  0
  -10.0476  -12.6973   18.5064 N   0  0  0  0  0  0  0  0  0  0  0  0
   -8.9744  -11.8286   17.9626 C   0  0  0  0  0  0  0  0  0  0  0  0
   -7.7808  -11.8806   18.1004 O   0  0  0  0  0  0  0  0  0  0  0  0
   -9.5894  -10.7203   16.9984 C   0  0  0  0  0  0  0  0  0  0  0  0
   -8.9699  -10.7504   15.6492 N   0  0  0  0  0  0  0  0  0  0  0  0
   -7.6630  -10.0913   15.5369 C   0  0  0  0  0  0  0  0  0  0  0  0
   -7.4742   -9.8644   14.0316 C   0  0  0  0  0  0  0  0  0  0  0  0
   -8.7994  -10.2819   13.4131 C   0  0  0  0  0  0  0  0  0  0  0  0
   -9.7750  -10.1725   14.5733 C   0  0  0  0  0  0  0  0  0  0  0  0
  -13.0870  -16.3610   22.3494 N   0  0  0  0  0  0  0  0  0  0  0  0
  -12.7200  -17.1455   23.9099 C   0  0  0  0  0  0  0  0  0  0  0  0
  -14.8331  -19.1528   25.6570 H   0  0  0  0  0  0  0  0  0  0  0  0
  -14.4921  -20.7374   24.6456 H   0  0  0  0  0  0  0  0  0  0  0  0
  -15.6469  -19.7706   24.2657 H   0  0  0  0  0  0  0  0  0  0  0  0
  -12.6773  -21.2594   24.0718 H   0  0  0  0  0  0  0  0  0  0  0  0
  -10.3069  -21.1575   23.1613 H   0  0  0  0  0  0  0  0  0  0  0  0
   -8.9117  -18.9298   23.2494 H   0  0  0  0  0  0  0  0  0  0  0  0
  -12.2226  -15.3268   23.6345 H   0  0  0  0  0  0  0  0  0  0  0  0
  -12.2925  -15.7442   19.4720 H   0  0  0  0  0  0  0  0  0  0  0  0
  -10.4625  -16.2478   19.5457 H   0  0  0  0  0  0  0  0  0  0  0  0
   -9.0013  -14.6281   19.2363 H   0  0  0  0  0  0  0  0  0  0  0  0
   -9.3634  -13.5181   20.1432 H   0  0  0  0  0  0  0  0  0  0  0  0
  -10.9485  -12.3097   18.2530 H   0  0  0  0  0  0  0  0  0  0  0  0
   -9.4726   -9.7427   17.4793 H   0  0  0  0  0  0  0  0  0  0  0  0
  -10.6637  -10.9046   16.8927 H   0  0  0  0  0  0  0  0  0  0  0  0
   -7.6502   -9.1259   16.0574 H   0  0  0  0  0  0  0  0  0  0  0  0
   -6.8587  -10.7139   15.9397 H   0  0  0  0  0  0  0  0  0  0  0  0
   -7.2549   -8.8111   13.8342 H   0  0  0  0  0  0  0  0  0  0  0  0
   -6.6516  -10.4645   13.6289 H   0  0  0  0  0  0  0  0  0  0  0  0
   -9.0734   -9.6943   12.5402 H   0  0  0  0  0  0  0  0  0  0  0  0
   -8.7326  -11.3268   13.0807 H   0  0  0  0  0  0  0  0  0  0  0  0
  -10.6855  -10.7487   14.3834 H   0  0  0  0  0  0  0  0  0  0  0  0
  -10.0402   -9.1311   14.7863 H   0  0  0  0  0  0  0  0  0  0  0  0
  1  2  1  0
  2  3  2  0
  3  4  1  0
  4  5  2  0
  5  6  1  0
  6  7  1  0
  7  8  1  0
  8  9  1  0
  9 10  1  0
 10 11  1  0
 11 12  1  0
 12 13  2  0
 12 14  1  0
 14 15  1  0
 15 16  1  0
 16 17  1  0
 17 18  1  0
 18 19  1  0
  8 20  2  0
 20 21  1  0
 21  2  1  0
 21  6  2  0
 19 15  1  0
  1 22  1  0
  1 23  1  0
  1 24  1  0
  3 25  1  0
  4 26  1  0
  5 27  1  0
  7 28  1  0
  9 29  1  0
  9 30  1  0
 10 31  1  0
 10 32  1  0
 11 33  1  0
 14 34  1  0
 14 35  1  0
 16 36  1  0
 16 37  1  0
 17 38  1  0
 17 39  1  0
 18 40  1  0
 18 41  1  0
 19 42  1  0
 19 43  1  0
M  END
>  <Energy>  (974) 
748.00372346016718

>  <compound_id>  (974) 
9259

>  <target_id>  (974) 
1

>  <reference_id>  (974) 
94

>  <inspiration_ids>  (974) 
[94, 95]

>  <energy_score>  (974) 
677.1696388245268

>  <distance_score>  (974) 
13.28160718915346

>  <path>  (974) 
/opt/xchem-fragalysis-2/maxwin/BulkDock/SCRATCH/511016/C9259-P94/C9259-P94.minimised.mol

>  <scratch_subdir>  (974) 
/opt/xchem-fragalysis-2/maxwin/BulkDock/SCRATCH/511016/C9259-P94

>  <fragmenstein_runtime>  (974) 
44.743287324905396

>  <fragmenstein_outcome>  (974) 
too moved

>  <fragmenstein_mode>  (974) 
expansion

>  <fragmenstein_error>  (974) 


$$$$
C9259-P95
     RDKit          3D

 43 45  0  0  0  0  0  0  0  0999 V2000
   -6.6501  -23.2766   20.6885 C   0  0  0  0  0  0  0  0  0  0  0  0
   -6.1876  -22.2087   21.6315 C   0  0  0  0  0  0  0  0  0  0  0  0
   -5.8008  -22.5164   22.9476 C   0  0  0  0  0  0  0  0  0  0  0  0
   -5.3341  -21.5471   23.8375 C   0  0  0  0  0  0  0  0  0  0  0  0
   -5.2982  -20.2002   23.4715 C   0  0  0  0  0  0  0  0  0  0  0  0
   -5.6345  -19.9138   22.1467 C   0  0  0  0  0  0  0  0  0  0  0  0
   -5.6066  -18.7535   21.4054 N   0  0  0  0  0  0  0  0  0  0  0  0
   -5.6540  -19.1061   20.0609 C   0  0  0  0  0  0  0  0  0  0  0  0
   -5.0229  -18.2555   18.9596 C   0  0  0  0  0  0  0  0  0  0  0  0
   -5.7341  -18.1558   17.5759 C   0  0  0  0  0  0  0  0  0  0  0  0
   -5.2355  -17.0523   16.6887 N   0  0  0  0  0  0  0  0  0  0  0  0
   -5.9034  -16.3101   15.6048 C   0  0  0  0  0  0  0  0  0  0  0  0
   -6.9850  -16.4583   15.1103 O   0  0  0  0  0  0  0  0  0  0  0  0
   -5.0022  -15.0657   15.1514 C   0  0  0  0  0  0  0  0  0  0  0  0
   -5.5160  -14.2353   14.0003 N   0  0  0  0  0  0  0  0  0  0  0  0
   -6.7740  -13.5200   14.2564 C   0  0  0  0  0  0  0  0  0  0  0  0
   -6.8314  -12.3975   13.2124 C   0  0  0  0  0  0  0  0  0  0  0  0
   -5.4163  -12.2834   12.6695 C   0  0  0  0  0  0  0  0  0  0  0  0
   -4.5841  -13.1667   13.5953 C   0  0  0  0  0  0  0  0  0  0  0  0
   -6.1007  -20.3413   19.9571 N   0  0  0  0  0  0  0  0  0  0  0  0
   -6.0352  -20.8739   21.2294 C   0  0  0  0  0  0  0  0  0  0  0  0
   -6.5799  -22.9482   19.6467 H   0  0  0  0  0  0  0  0  0  0  0  0
   -7.6948  -23.5264   20.8939 H   0  0  0  0  0  0  0  0  0  0  0  0
   -6.0340  -24.1757   20.7902 H   0  0  0  0  0  0  0  0  0  0  0  0
   -5.8179  -23.5476   23.2622 H   0  0  0  0  0  0  0  0  0  0  0  0
   -5.0317  -21.8387   24.8408 H   0  0  0  0  0  0  0  0  0  0  0  0
   -4.9669  -19.4309   24.1587 H   0  0  0  0  0  0  0  0  0  0  0  0
   -5.3637  -17.8398   21.7678 H   0  0  0  0  0  0  0  0  0  0  0  0
   -4.8453  -17.2619   19.3746 H   0  0  0  0  0  0  0  0  0  0  0  0
   -4.0188  -18.6635   18.7799 H   0  0  0  0  0  0  0  0  0  0  0  0
   -5.6061  -19.0895   17.0181 H   0  0  0  0  0  0  0  0  0  0  0  0
   -6.8084  -17.9955   17.6971 H   0  0  0  0  0  0  0  0  0  0  0  0
   -4.2896  -16.7068   16.7937 H   0  0  0  0  0  0  0  0  0  0  0  0
   -4.8550  -14.4292   16.0324 H   0  0  0  0  0  0  0  0  0  0  0  0
   -4.0327  -15.4839   14.8551 H   0  0  0  0  0  0  0  0  0  0  0  0
   -6.7812  -13.0814   15.2620 H   0  0  0  0  0  0  0  0  0  0  0  0
   -7.6434  -14.1753   14.1562 H   0  0  0  0  0  0  0  0  0  0  0  0
   -7.5294  -12.6420   12.4042 H   0  0  0  0  0  0  0  0  0  0  0  0
   -7.1595  -11.4589   13.6713 H   0  0  0  0  0  0  0  0  0  0  0  0
   -5.3803  -12.6683   11.6434 H   0  0  0  0  0  0  0  0  0  0  0  0
   -5.0592  -11.2493   12.6568 H   0  0  0  0  0  0  0  0  0  0  0  0
   -4.2489  -12.5861   14.4641 H   0  0  0  0  0  0  0  0  0  0  0  0
   -3.7053  -13.5685   13.0816 H   0  0  0  0  0  0  0  0  0  0  0  0
  1  2  1  0
  2  3  2  0
  3  4  1  0
  4  5  2  0
  5  6  1  0
  6  7  1  0
  7  8  1  0
  8  9  1  0
  9 10  1  0
 10 11  1  0
 11 12  1  0
 12 13  2  0
 12 14  1  0
 14 15  1  0
 15 16  1  0
 16 17  1  0
 17 18  1  0
 18 19  1  0
  8 20  2  0
 20 21  1  0
 21  2  1  0
 21  6  2  0
 19 15  1  0
  1 22  1  0
  1 23  1  0
  1 24  1  0
  3 25  1  0
  4 26  1  0
  5 27  1  0
  7 28  1  0
  9 29  1  0
  9 30  1  0
 10 31  1  0
 10 32  1  0
 11 33  1  0
 14 34  1  0
 14 35  1  0
 16 36  1  0
 16 37  1  0
 17 38  1  0
 17 39  1  0
 18 40  1  0
 18 41  1  0
 19 42  1  0
 19 43  1  0
M  END
>  <Energy>  (975) 
73.800115403391629

>  <compound_id>  (975) 
9259

>  <target_id>  (975) 
1

>  <reference_id>  (975) 
95

>  <inspiration_ids>  (975) 
[94, 95]

>  <energy_score>  (975) 
2.966030767757104

>  <distance_score>  (975) 
14.880316840094801

>  <path>  (975) 
/opt/xchem-fragalysis-2/maxwin/BulkDock/SCRATCH/511016/C9259-P95/C9259-P95.minimised.mol

>  <scratch_subdir>  (975) 
/opt/xchem-fragalysis-2/maxwin/BulkDock/SCRATCH/511016/C9259-P95

>  <fragmenstein_runtime>  (975) 
30.03555464744568

>  <fragmenstein_outcome>  (975) 
too moved

>  <fragmenstein_mode>  (975) 
expansion

>  <fragmenstein_error>  (975) 


$$$$
C9260-P94
     RDKit          3D

 46 48  0  0  0  0  0  0  0  0999 V2000
   -5.6129   -9.2421   21.1314 C   0  0  0  0  0  0  0  0  0  0  0  0
   -6.4428   -8.5014   20.0526 C   0  0  0  0  0  0  0  0  0  0  0  0
   -7.6397   -7.7195   20.3853 N   0  0  0  0  0  0  0  0  0  0  0  0
   -8.5827   -7.2118   19.4166 C   0  0  0  0  0  0  0  0  0  0  0  0
   -8.4276   -7.0900   17.7433 C   0  0  0  0  0  0  0  0  0  0  0  0
   -8.6583   -5.6604   16.9399 C   0  0  0  0  0  0  0  0  0  0  0  0
   -9.0447   -5.5167   15.3795 N   0  0  0  0  0  0  0  0  0  0  0  0
   -8.5965   -4.4771   14.3185 C   0  0  0  0  0  0  0  0  0  0  0  0
   -7.7916   -3.5857   14.3973 O   0  0  0  0  0  0  0  0  0  0  0  0
   -9.5261   -4.5922   12.8254 C   0  0  0  0  0  0  0  0  0  0  0  0
   -9.9288   -3.9580   11.1117 N   0  0  0  0  0  0  0  0  0  0  0  0
   -9.1830   -4.0205    9.4730 C   0  0  0  0  0  0  0  0  0  0  0  0
   -9.1279   -2.5740    8.7908 C   0  0  0  0  0  0  0  0  0  0  0  0
   -9.8434   -1.5132    9.6914 C   0  0  0  0  0  0  0  0  0  0  0  0
  -10.3092   -2.1864   11.0585 C   0  0  0  0  0  0  0  0  0  0  0  0
   -9.7461   -7.0881   20.0572 N   0  0  0  0  0  0  0  0  0  0  0  0
   -9.5677   -7.3969   21.4018 C   0  0  0  0  0  0  0  0  0  0  0  0
  -10.5213   -7.5530   22.4374 C   0  0  0  0  0  0  0  0  0  0  0  0
  -10.1350   -8.0469   23.6967 C   0  0  0  0  0  0  0  0  0  0  0  0
   -8.7993   -8.3081   23.9608 C   0  0  0  0  0  0  0  0  0  0  0  0
   -7.8278   -8.0901   22.9722 C   0  0  0  0  0  0  0  0  0  0  0  0
   -8.2380   -7.6917   21.6669 C   0  0  0  0  0  0  0  0  0  0  0  0
   -4.7823   -9.7551   20.6321 H   0  0  0  0  0  0  0  0  0  0  0  0
   -6.1375  -10.0013   21.7088 H   0  0  0  0  0  0  0  0  0  0  0  0
   -5.1602   -8.5205   21.8185 H   0  0  0  0  0  0  0  0  0  0  0  0
   -6.7614   -9.2302   19.2972 H   0  0  0  0  0  0  0  0  0  0  0  0
   -5.7791   -7.7872   19.5494 H   0  0  0  0  0  0  0  0  0  0  0  0
   -7.4304   -7.4656   17.4886 H   0  0  0  0  0  0  0  0  0  0  0  0
   -9.1645   -7.8026   17.3517 H   0  0  0  0  0  0  0  0  0  0  0  0
   -9.4834   -5.1450   17.4446 H   0  0  0  0  0  0  0  0  0  0  0  0
   -7.7630   -5.0433   17.0721 H   0  0  0  0  0  0  0  0  0  0  0  0
   -9.8035   -6.0734   15.0042 H   0  0  0  0  0  0  0  0  0  0  0  0
  -10.2825   -5.3237   13.0537 H   0  0  0  0  0  0  0  0  0  0  0  0
   -9.9707   -3.7032   13.3200 H   0  0  0  0  0  0  0  0  0  0  0  0
   -8.2026   -4.5126    9.3056 H   0  0  0  0  0  0  0  0  0  0  0  0
   -9.7593   -4.6941    8.9134 H   0  0  0  0  0  0  0  0  0  0  0  0
   -9.5998   -2.6101    7.8004 H   0  0  0  0  0  0  0  0  0  0  0  0
   -8.0913   -2.2701    8.6115 H   0  0  0  0  0  0  0  0  0  0  0  0
  -10.7159   -1.1074    9.1610 H   0  0  0  0  0  0  0  0  0  0  0  0
   -9.1994   -0.6440    9.8751 H   0  0  0  0  0  0  0  0  0  0  0  0
   -9.9505   -1.6815   11.9491 H   0  0  0  0  0  0  0  0  0  0  0  0
  -11.3735   -1.9937   11.1689 H   0  0  0  0  0  0  0  0  0  0  0  0
  -11.5661   -7.3445   22.2232 H   0  0  0  0  0  0  0  0  0  0  0  0
  -10.8851   -8.1874   24.4710 H   0  0  0  0  0  0  0  0  0  0  0  0
   -8.4981   -8.6511   24.9484 H   0  0  0  0  0  0  0  0  0  0  0  0
   -6.7901   -8.2867   23.2146 H   0  0  0  0  0  0  0  0  0  0  0  0
  1  2  1  0
  2  3  1  0
  3  4  1  0
  4  5  1  0
  5  6  1  0
  6  7  1  0
  7  8  1  0
  8  9  2  0
  8 10  1  0
 10 11  1  0
 11 12  1  0
 12 13  1  0
 13 14  1  0
 14 15  1  0
  4 16  2  0
 16 17  1  0
 17 18  2  0
 18 19  1  0
 19 20  2  0
 20 21  1  0
 21 22  2  0
 22  3  1  0
 15 11  1  0
 22 17  1  0
  1 23  1  0
  1 24  1  0
  1 25  1  0
  2 26  1  0
  2 27  1  0
  5 28  1  0
  5 29  1  0
  6 30  1  0
  6 31  1  0
  7 32  1  0
 10 33  1  0
 10 34  1  0
 12 35  1  0
 12 36  1  0
 13 37  1  0
 13 38  1  0
 14 39  1  0
 14 40  1  0
 15 41  1  0
 15 42  1  0
 18 43  1  0
 19 44  1  0
 20 45  1  0
 21 46  1  0
M  END
>  <Energy>  (976) 
326.71096715773916

>  <compound_id>  (976) 
9260

>  <target_id>  (976) 
1

>  <reference_id>  (976) 
94

>  <inspiration_ids>  (976) 
[94, 95]

>  <energy_score>  (976) 
254.09401573057778

>  <distance_score>  (976) 
14.775875881096688

>  <path>  (976) 
/opt/xchem-fragalysis-2/maxwin/BulkDock/SCRATCH/511016/C9260-P94/C9260-P94.minimised.mol

>  <scratch_subdir>  (976) 
/opt/xchem-fragalysis-2/maxwin/BulkDock/SCRATCH/511016/C9260-P94

>  <fragmenstein_runtime>  (976) 
29.95362877845764

>  <fragmenstein_outcome>  (976) 
too moved

>  <fragmenstein_mode>  (976) 
expansion

>  <fragmenstein_error>  (976) 


$$$$
C9260-P95
     RDKit          3D

 46 48  0  0  0  0  0  0  0  0999 V2000
  -18.0541  -18.1811   25.4104 C   0  0  0  0  0  0  0  0  0  0  0  0
  -18.3180  -16.7271   24.9800 C   0  0  0  0  0  0  0  0  0  0  0  0
  -17.4261  -15.7180   25.5200 N   0  0  0  0  0  0  0  0  0  0  0  0
  -16.9408  -14.5481   24.9168 C   0  0  0  0  0  0  0  0  0  0  0  0
  -17.4662  -13.8795   23.6038 C   0  0  0  0  0  0  0  0  0  0  0  0
  -17.5638  -12.2858   23.5578 C   0  0  0  0  0  0  0  0  0  0  0  0
  -16.7372  -11.4887   22.5809 N   0  0  0  0  0  0  0  0  0  0  0  0
  -17.1417  -10.5060   21.5331 C   0  0  0  0  0  0  0  0  0  0  0  0
  -18.2336  -10.1695   21.1577 O   0  0  0  0  0  0  0  0  0  0  0  0
  -15.8244   -9.8497   20.8294 C   0  0  0  0  0  0  0  0  0  0  0  0
  -15.9413   -8.4469   20.2747 N   0  0  0  0  0  0  0  0  0  0  0  0
  -14.6304   -7.7599   20.1299 C   0  0  0  0  0  0  0  0  0  0  0  0
  -14.2492   -7.6817   18.6488 C   0  0  0  0  0  0  0  0  0  0  0  0
  -15.3617   -8.4150   17.9360 C   0  0  0  0  0  0  0  0  0  0  0  0
  -16.5217   -8.3504   18.9254 C   0  0  0  0  0  0  0  0  0  0  0  0
  -15.9023  -14.1279   25.6271 N   0  0  0  0  0  0  0  0  0  0  0  0
  -15.8988  -14.8468   26.7984 C   0  0  0  0  0  0  0  0  0  0  0  0
  -15.0984  -14.7050   27.9361 C   0  0  0  0  0  0  0  0  0  0  0  0
  -15.4810  -15.3890   29.0914 C   0  0  0  0  0  0  0  0  0  0  0  0
  -16.5842  -16.2463   29.0868 C   0  0  0  0  0  0  0  0  0  0  0  0
  -17.3048  -16.4908   27.9314 C   0  0  0  0  0  0  0  0  0  0  0  0
  -16.9338  -15.7646   26.8035 C   0  0  0  0  0  0  0  0  0  0  0  0
  -18.4108  -18.8619   24.6299 H   0  0  0  0  0  0  0  0  0  0  0  0
  -18.6145  -18.4352   26.3138 H   0  0  0  0  0  0  0  0  0  0  0  0
  -16.9961  -18.3845   25.5859 H   0  0  0  0  0  0  0  0  0  0  0  0
  -18.2368  -16.6641   23.8899 H   0  0  0  0  0  0  0  0  0  0  0  0
  -19.3374  -16.4302   25.2508 H   0  0  0  0  0  0  0  0  0  0  0  0
  -18.4866  -14.2562   23.4551 H   0  0  0  0  0  0  0  0  0  0  0  0
  -16.8764  -14.2455   22.7604 H   0  0  0  0  0  0  0  0  0  0  0  0
  -18.6041  -12.0203   23.3374 H   0  0  0  0  0  0  0  0  0  0  0  0
  -17.3242  -11.8757   24.5448 H   0  0  0  0  0  0  0  0  0  0  0  0
  -15.7343  -11.4609   22.6920 H   0  0  0  0  0  0  0  0  0  0  0  0
  -15.4842  -10.5338   20.0514 H   0  0  0  0  0  0  0  0  0  0  0  0
  -15.0725   -9.8126   21.6172 H   0  0  0  0  0  0  0  0  0  0  0  0
  -13.8361   -8.1986   20.7389 H   0  0  0  0  0  0  0  0  0  0  0  0
  -14.7528   -6.7377   20.5102 H   0  0  0  0  0  0  0  0  0  0  0  0
  -14.2077   -6.6362   18.3235 H   0  0  0  0  0  0  0  0  0  0  0  0
  -13.2765   -8.1424   18.4500 H   0  0  0  0  0  0  0  0  0  0  0  0
  -15.6084   -7.9662   16.9697 H   0  0  0  0  0  0  0  0  0  0  0  0
  -15.0497   -9.4498   17.7663 H   0  0  0  0  0  0  0  0  0  0  0  0
  -17.3076   -9.0858   18.7476 H   0  0  0  0  0  0  0  0  0  0  0  0
  -17.0051   -7.3683   18.8382 H   0  0  0  0  0  0  0  0  0  0  0  0
  -14.2747  -14.0012   27.9464 H   0  0  0  0  0  0  0  0  0  0  0  0
  -14.9125  -15.2224   30.0027 H   0  0  0  0  0  0  0  0  0  0  0  0
  -16.9306  -16.7440   29.9820 H   0  0  0  0  0  0  0  0  0  0  0  0
  -18.1612  -17.1526   27.9545 H   0  0  0  0  0  0  0  0  0  0  0  0
  1  2  1  0
  2  3  1  0
  3  4  1  0
  4  5  1  0
  5  6  1  0
  6  7  1  0
  7  8  1  0
  8  9  2  0
  8 10  1  0
 10 11  1  0
 11 12  1  0
 12 13  1  0
 13 14  1  0
 14 15  1  0
  4 16  2  0
 16 17  1  0
 17 18  2  0
 18 19  1  0
 19 20  2  0
 20 21  1  0
 21 22  2  0
 22  3  1  0
 15 11  1  0
 22 17  1  0
  1 23  1  0
  1 24  1  0
  1 25  1  0
  2 26  1  0
  2 27  1  0
  5 28  1  0
  5 29  1  0
  6 30  1  0
  6 31  1  0
  7 32  1  0
 10 33  1  0
 10 34  1  0
 12 35  1  0
 12 36  1  0
 13 37  1  0
 13 38  1  0
 14 39  1  0
 14 40  1  0
 15 41  1  0
 15 42  1  0
 18 43  1  0
 19 44  1  0
 20 45  1  0
 21 46  1  0
M  END
>  <Energy>  (977) 
89.589825737773609

>  <compound_id>  (977) 
9260

>  <target_id>  (977) 
1

>  <reference_id>  (977) 
95

>  <inspiration_ids>  (977) 
[94, 95]

>  <energy_score>  (977) 
16.972874310608745

>  <distance_score>  (977) 
16.048335055116823

>  <path>  (977) 
/opt/xchem-fragalysis-2/maxwin/BulkDock/SCRATCH/511016/C9260-P95/C9260-P95.minimised.mol

>  <scratch_subdir>  (977) 
/opt/xchem-fragalysis-2/maxwin/BulkDock/SCRATCH/511016/C9260-P95

>  <fragmenstein_runtime>  (977) 
27.458413124084473

>  <fragmenstein_outcome>  (977) 
too moved

>  <fragmenstein_mode>  (977) 
expansion

>  <fragmenstein_error>  (977) 


$$$$
C9263-P94
     RDKit          3D

 45 48  0  0  0  0  0  0  0  0999 V2000
   -7.3933  -10.2050   16.5056 O   0  0  0  0  0  0  0  0  0  0  0  0
   -8.6609   -9.9815   17.1525 S   0  0  0  0  0  0  0  0  0  0  0  0
   -8.7706   -8.7415   17.9135 O   0  0  0  0  0  0  0  0  0  0  0  0
   -9.1662  -11.3617   18.2160 C   0  0  0  0  0  0  0  0  0  0  0  0
   -8.3860  -12.4314   18.9670 C   0  0  0  0  0  0  0  0  0  0  0  0
   -9.2495  -13.1992   20.6145 C   0  0  0  0  0  0  0  0  0  0  0  0
  -11.0187  -13.4814   21.1547 N   0  0  0  0  0  0  0  0  0  0  0  0
  -11.2601  -14.6709   22.5724 C   0  0  0  0  0  0  0  0  0  0  0  0
  -11.5230  -16.0909   22.7970 N   0  0  0  0  0  0  0  0  0  0  0  0
  -11.4560  -16.6048   24.2813 C   0  0  0  0  0  0  0  0  0  0  0  0
  -10.0979  -16.6867   25.4732 C   0  0  0  0  0  0  0  0  0  0  0  0
  -10.1494  -16.0149   26.8298 C   0  0  0  0  0  0  0  0  0  0  0  0
  -11.2472  -15.1103   27.1239 C   0  0  0  0  0  0  0  0  0  0  0  0
  -12.3263  -14.8289   26.1296 C   0  0  0  0  0  0  0  0  0  0  0  0
  -12.3816  -15.5991   24.7568 C   0  0  0  0  0  0  0  0  0  0  0  0
  -12.6057  -15.3935   23.4332 N   0  0  0  0  0  0  0  0  0  0  0  0
  -10.3015  -13.5128   19.3509 C   0  0  0  0  0  0  0  0  0  0  0  0
  -10.4209  -12.1296   18.1500 C   0  0  0  0  0  0  0  0  0  0  0  0
   -9.7916   -9.7673   15.9164 N   0  0  0  0  0  0  0  0  0  0  0  0
   -9.3469   -8.6540   15.0141 C   0  0  0  0  0  0  0  0  0  0  0  0
  -10.1700   -7.4495   15.4634 C   0  0  0  0  0  0  0  0  0  0  0  0
  -11.5276   -8.0756   15.6780 C   0  0  0  0  0  0  0  0  0  0  0  0
  -11.1864   -9.4065   16.3406 C   0  0  0  0  0  0  0  0  0  0  0  0
   -9.3663  -10.6285   18.9437 H   0  0  0  0  0  0  0  0  0  0  0  0
   -7.3423  -12.1586   19.1625 H   0  0  0  0  0  0  0  0  0  0  0  0
   -8.1415  -13.2258   18.2714 H   0  0  0  0  0  0  0  0  0  0  0  0
   -9.1235  -12.8297   21.6244 H   0  0  0  0  0  0  0  0  0  0  0  0
   -8.5981  -14.0952   20.4602 H   0  0  0  0  0  0  0  0  0  0  0  0
   -9.1265  -16.4316   25.0690 H   0  0  0  0  0  0  0  0  0  0  0  0
   -9.2748  -16.0301   27.4748 H   0  0  0  0  0  0  0  0  0  0  0  0
  -11.2442  -14.5554   28.0582 H   0  0  0  0  0  0  0  0  0  0  0  0
  -13.0469  -14.0373   26.3187 H   0  0  0  0  0  0  0  0  0  0  0  0
  -12.9978  -16.1148   22.8384 H   0  0  0  0  0  0  0  0  0  0  0  0
   -9.4074  -14.1660   19.2185 H   0  0  0  0  0  0  0  0  0  0  0  0
  -10.5687  -14.4859   18.9644 H   0  0  0  0  0  0  0  0  0  0  0  0
  -10.6085  -12.4158   17.1334 H   0  0  0  0  0  0  0  0  0  0  0  0
  -11.2784  -11.4787   18.2138 H   0  0  0  0  0  0  0  0  0  0  0  0
   -9.5622   -9.0111   14.0066 H   0  0  0  0  0  0  0  0  0  0  0  0
   -8.2764   -8.4364   15.0551 H   0  0  0  0  0  0  0  0  0  0  0  0
   -9.7908   -7.0521   16.4114 H   0  0  0  0  0  0  0  0  0  0  0  0
  -10.1817   -6.6063   14.7732 H   0  0  0  0  0  0  0  0  0  0  0  0
  -12.1797   -7.4608   16.3055 H   0  0  0  0  0  0  0  0  0  0  0  0
  -12.0513   -8.2565   14.7342 H   0  0  0  0  0  0  0  0  0  0  0  0
  -11.8793  -10.1946   16.0306 H   0  0  0  0  0  0  0  0  0  0  0  0
  -11.2603   -9.3017   17.4276 H   0  0  0  0  0  0  0  0  0  0  0  0
  1  2  2  0
  2  3  2  0
  2  4  1  0
  4  5  1  0
  5  6  1  0
  6  7  1  0
  7  8  1  0
  8  9  2  0
  9 10  1  0
 10 11  2  0
 11 12  1  0
 12 13  2  0
 13 14  1  0
 14 15  2  0
 15 16  1  0
  7 17  1  0
 17 18  1  0
  2 19  1  0
 19 20  1  0
 20 21  1  0
 21 22  1  0
 22 23  1  0
 18  4  1  0
 23 19  1  0
 16  8  1  0
 15 10  1  0
  4 24  1  0
  5 25  1  0
  5 26  1  0
  6 27  1  0
  6 28  1  0
 11 29  1  0
 12 30  1  0
 13 31  1  0
 14 32  1  0
 16 33  1  0
 17 34  1  0
 17 35  1  0
 18 36  1  0
 18 37  1  0
 20 38  1  0
 20 39  1  0
 21 40  1  0
 21 41  1  0
 22 42  1  0
 22 43  1  0
 23 44  1  0
 23 45  1  0
M  END
>  <Energy>  (978) 
793.45973010853641

>  <compound_id>  (978) 
9263

>  <target_id>  (978) 
1

>  <reference_id>  (978) 
94

>  <inspiration_ids>  (978) 
[94, 95]

>  <energy_score>  (978) 
810.8296568019898

>  <distance_score>  (978) 
12.368286680472607

>  <path>  (978) 
/opt/xchem-fragalysis-2/maxwin/BulkDock/SCRATCH/511016/C9263-P94/C9263-P94.minimised.mol

>  <scratch_subdir>  (978) 
/opt/xchem-fragalysis-2/maxwin/BulkDock/SCRATCH/511016/C9263-P94

>  <fragmenstein_runtime>  (978) 
27.94138193130493

>  <fragmenstein_outcome>  (978) 
too moved

>  <fragmenstein_mode>  (978) 
expansion

>  <fragmenstein_error>  (978) 


$$$$
C9263-P95
     RDKit          3D

 45 48  0  0  0  0  0  0  0  0999 V2000
   -6.9975  -12.6922   18.9058 O   0  0  0  0  0  0  0  0  0  0  0  0
   -8.2670  -13.3419   18.6308 S   0  0  0  0  0  0  0  0  0  0  0  0
   -9.4330  -13.1267   19.4447 O   0  0  0  0  0  0  0  0  0  0  0  0
   -8.3932  -15.7793   18.3799 C   0  0  0  0  0  0  0  0  0  0  0  0
   -7.2152  -17.4619   18.5580 C   0  0  0  0  0  0  0  0  0  0  0  0
   -6.8130  -18.6836   19.9098 C   0  0  0  0  0  0  0  0  0  0  0  0
   -7.2057  -18.4522   21.3539 N   0  0  0  0  0  0  0  0  0  0  0  0
   -7.9847  -19.4524   22.4208 C   0  0  0  0  0  0  0  0  0  0  0  0
   -9.3388  -19.2962   23.1602 N   0  0  0  0  0  0  0  0  0  0  0  0
  -10.3872  -20.6776   23.0345 C   0  0  0  0  0  0  0  0  0  0  0  0
  -11.6902  -21.0520   23.4211 C   0  0  0  0  0  0  0  0  0  0  0  0
  -12.4137  -21.8722   22.5644 C   0  0  0  0  0  0  0  0  0  0  0  0
  -11.8062  -22.3698   21.4241 C   0  0  0  0  0  0  0  0  0  0  0  0
  -10.4213  -22.2858   21.2619 C   0  0  0  0  0  0  0  0  0  0  0  0
   -9.7068  -21.4866   22.1672 C   0  0  0  0  0  0  0  0  0  0  0  0
   -8.3702  -20.7949   21.9810 N   0  0  0  0  0  0  0  0  0  0  0  0
   -7.7112  -17.0626   21.3515 C   0  0  0  0  0  0  0  0  0  0  0  0
   -8.6619  -15.9689   20.0340 C   0  0  0  0  0  0  0  0  0  0  0  0
   -8.8133  -12.0108   17.3211 N   0  0  0  0  0  0  0  0  0  0  0  0
  -10.2727  -11.4746   17.2821 C   0  0  0  0  0  0  0  0  0  0  0  0
  -10.2363   -9.9603   17.0671 C   0  0  0  0  0  0  0  0  0  0  0  0
   -8.8548   -9.5787   17.5062 C   0  0  0  0  0  0  0  0  0  0  0  0
   -8.0545  -10.7707   17.0278 C   0  0  0  0  0  0  0  0  0  0  0  0
   -9.2126  -16.0364   17.7677 H   0  0  0  0  0  0  0  0  0  0  0  0
   -6.1225  -17.4500   18.3220 H   0  0  0  0  0  0  0  0  0  0  0  0
   -7.5695  -18.0265   17.6826 H   0  0  0  0  0  0  0  0  0  0  0  0
   -5.7321  -18.8455   19.8566 H   0  0  0  0  0  0  0  0  0  0  0  0
   -7.3074  -19.5703   19.5809 H   0  0  0  0  0  0  0  0  0  0  0  0
  -12.2220  -20.6090   24.2402 H   0  0  0  0  0  0  0  0  0  0  0  0
  -13.4673  -22.0542   22.7604 H   0  0  0  0  0  0  0  0  0  0  0  0
  -12.3976  -22.9117   20.6883 H   0  0  0  0  0  0  0  0  0  0  0  0
   -9.9472  -22.7402   20.4026 H   0  0  0  0  0  0  0  0  0  0  0  0
   -8.3260  -20.6903   20.9944 H   0  0  0  0  0  0  0  0  0  0  0  0
   -8.5625  -17.6244   21.5012 H   0  0  0  0  0  0  0  0  0  0  0  0
   -7.7698  -16.7870   22.3702 H   0  0  0  0  0  0  0  0  0  0  0  0
   -8.5572  -14.9557   20.3688 H   0  0  0  0  0  0  0  0  0  0  0  0
   -9.7069  -16.1823   19.8844 H   0  0  0  0  0  0  0  0  0  0  0  0
  -10.8337  -11.8624   16.4268 H   0  0  0  0  0  0  0  0  0  0  0  0
  -10.8173  -11.7451   18.1564 H   0  0  0  0  0  0  0  0  0  0  0  0
  -10.3770   -9.7276   16.0041 H   0  0  0  0  0  0  0  0  0  0  0  0
  -11.0208   -9.4419   17.6253 H   0  0  0  0  0  0  0  0  0  0  0  0
   -8.8117   -9.4727   18.5876 H   0  0  0  0  0  0  0  0  0  0  0  0
   -8.5201   -8.6393   17.0563 H   0  0  0  0  0  0  0  0  0  0  0  0
   -7.0200  -10.8243   17.3078 H   0  0  0  0  0  0  0  0  0  0  0  0
   -8.0815  -10.6467   15.9433 H   0  0  0  0  0  0  0  0  0  0  0  0
  1  2  2  0
  2  3  2  0
  2  4  1  0
  4  5  1  0
  5  6  1  0
  6  7  1  0
  7  8  1  0
  8  9  2  0
  9 10  1  0
 10 11  2  0
 11 12  1  0
 12 13  2  0
 13 14  1  0
 14 15  2  0
 15 16  1  0
  7 17  1  0
 17 18  1  0
  2 19  1  0
 19 20  1  0
 20 21  1  0
 21 22  1  0
 22 23  1  0
 18  4  1  0
 23 19  1  0
 16  8  1  0
 15 10  1  0
  4 24  1  0
  5 25  1  0
  5 26  1  0
  6 27  1  0
  6 28  1  0
 11 29  1  0
 12 30  1  0
 13 31  1  0
 14 32  1  0
 16 33  1  0
 17 34  1  0
 17 35  1  0
 18 36  1  0
 18 37  1  0
 20 38  1  0
 20 39  1  0
 21 40  1  0
 21 41  1  0
 22 42  1  0
 22 43  1  0
 23 44  1  0
 23 45  1  0
M  END
>  <Energy>  (979) 
543.81089748012937

>  <compound_id>  (979) 
9263

>  <target_id>  (979) 
1

>  <reference_id>  (979) 
95

>  <inspiration_ids>  (979) 
[94, 95]

>  <energy_score>  (979) 
561.1808241735872

>  <distance_score>  (979) 
13.275740635747697

>  <path>  (979) 
/opt/xchem-fragalysis-2/maxwin/BulkDock/SCRATCH/511016/C9263-P95/C9263-P95.minimised.mol

>  <scratch_subdir>  (979) 
/opt/xchem-fragalysis-2/maxwin/BulkDock/SCRATCH/511016/C9263-P95

>  <fragmenstein_runtime>  (979) 
26.357617616653442

>  <fragmenstein_outcome>  (979) 
too moved

>  <fragmenstein_mode>  (979) 
expansion

>  <fragmenstein_error>  (979) 


$$$$
C9264-P94
     RDKit          3D

 49 52  0  0  0  0  0  0  0  0999 V2000
   -5.2277  -20.9139   20.8106 C   0  0  0  0  0  0  0  0  0  0  0  0
   -5.6075  -20.8549   22.1466 C   0  0  0  0  0  0  0  0  0  0  0  0
   -6.2738  -19.7303   22.6253 C   0  0  0  0  0  0  0  0  0  0  0  0
   -6.5956  -18.7217   21.7101 C   0  0  0  0  0  0  0  0  0  0  0  0
   -7.3740  -17.5901   21.7769 N   0  0  0  0  0  0  0  0  0  0  0  0
   -7.2510  -16.7390   20.6252 C   0  0  0  0  0  0  0  0  0  0  0  0
   -8.4278  -15.5371   20.1751 N   0  0  0  0  0  0  0  0  0  0  0  0
   -7.9765  -13.7599   19.6818 C   0  0  0  0  0  0  0  0  0  0  0  0
   -8.1416  -12.8260   18.1654 C   0  0  0  0  0  0  0  0  0  0  0  0
   -9.7153  -12.4386   17.9181 C   0  0  0  0  0  0  0  0  0  0  0  0
  -10.6238  -12.3103   16.3663 O   0  0  0  0  0  0  0  0  0  0  0  0
   -9.5261  -12.1550   14.9361 C   0  0  0  0  0  0  0  0  0  0  0  0
   -9.3005  -10.8271   13.9254 C   0  0  0  0  0  0  0  0  0  0  0  0
   -8.7696  -11.1095   12.5529 N   0  0  0  0  0  0  0  0  0  0  0  0
   -9.7622  -10.9026   11.4884 C   0  0  0  0  0  0  0  0  0  0  0  0
   -8.9694  -10.6637   10.2093 C   0  0  0  0  0  0  0  0  0  0  0  0
   -7.5752  -10.2771   10.6608 C   0  0  0  0  0  0  0  0  0  0  0  0
   -7.6468  -10.2277   12.1787 C   0  0  0  0  0  0  0  0  0  0  0  0
  -10.0275  -13.5532   19.0206 C   0  0  0  0  0  0  0  0  0  0  0  0
   -9.3159  -15.4051   19.0865 C   0  0  0  0  0  0  0  0  0  0  0  0
   -6.4766  -17.4945   19.8017 N   0  0  0  0  0  0  0  0  0  0  0  0
   -6.1465  -18.6989   20.4174 C   0  0  0  0  0  0  0  0  0  0  0  0
   -5.4629  -19.8291   19.9440 C   0  0  0  0  0  0  0  0  0  0  0  0
   -4.7090  -21.7907   20.4317 H   0  0  0  0  0  0  0  0  0  0  0  0
   -5.3759  -21.6796   22.8143 H   0  0  0  0  0  0  0  0  0  0  0  0
   -6.5296  -19.6471   23.6614 H   0  0  0  0  0  0  0  0  0  0  0  0
   -7.6529  -17.2191   22.6589 H   0  0  0  0  0  0  0  0  0  0  0  0
   -7.0236  -13.3573   19.9551 H   0  0  0  0  0  0  0  0  0  0  0  0
   -8.6808  -13.4844   20.4325 H   0  0  0  0  0  0  0  0  0  0  0  0
   -7.5359  -11.9299   18.3230 H   0  0  0  0  0  0  0  0  0  0  0  0
   -7.7026  -13.3643   17.3435 H   0  0  0  0  0  0  0  0  0  0  0  0
  -10.2313  -11.5770   18.3668 H   0  0  0  0  0  0  0  0  0  0  0  0
   -9.5666  -13.1302   14.4341 H   0  0  0  0  0  0  0  0  0  0  0  0
   -8.6571  -12.0798   15.5464 H   0  0  0  0  0  0  0  0  0  0  0  0
   -8.5026  -10.2428   14.3823 H   0  0  0  0  0  0  0  0  0  0  0  0
  -10.1330  -10.1241   13.9408 H   0  0  0  0  0  0  0  0  0  0  0  0
  -10.4092  -11.7773   11.3724 H   0  0  0  0  0  0  0  0  0  0  0  0
  -10.4017  -10.0418   11.6886 H   0  0  0  0  0  0  0  0  0  0  0  0
   -8.9230  -11.5785    9.6069 H   0  0  0  0  0  0  0  0  0  0  0  0
   -9.4281   -9.8887    9.5898 H   0  0  0  0  0  0  0  0  0  0  0  0
   -7.2473   -9.3268   10.2306 H   0  0  0  0  0  0  0  0  0  0  0  0
   -6.8607  -11.0448   10.3401 H   0  0  0  0  0  0  0  0  0  0  0  0
   -7.8083   -9.2048   12.5162 H   0  0  0  0  0  0  0  0  0  0  0  0
   -6.7081  -10.5759   12.6209 H   0  0  0  0  0  0  0  0  0  0  0  0
  -10.6996  -13.5030   18.2990 H   0  0  0  0  0  0  0  0  0  0  0  0
   -9.4765  -12.7971   19.4515 H   0  0  0  0  0  0  0  0  0  0  0  0
  -10.1992  -15.9311   19.3592 H   0  0  0  0  0  0  0  0  0  0  0  0
   -8.7695  -15.8145   18.2210 H   0  0  0  0  0  0  0  0  0  0  0  0
   -5.1278  -19.8571   18.9133 H   0  0  0  0  0  0  0  0  0  0  0  0
  1  2  2  0
  2  3  1  0
  3  4  2  0
  4  5  1  0
  5  6  1  0
  6  7  1  0
  7  8  1  0
  8  9  1  0
  9 10  1  0
 10 11  1  0
 11 12  1  0
 12 13  1  0
 13 14  1  0
 14 15  1  0
 15 16  1  0
 16 17  1  0
 17 18  1  0
 10 19  1  0
 19 20  1  0
  6 21  2  0
 21 22  1  0
 22 23  2  0
 23  1  1  0
 22  4  1  0
 20  7  1  0
 18 14  1  0
  1 24  1  0
  2 25  1  0
  3 26  1  0
  5 27  1  0
  8 28  1  0
  8 29  1  0
  9 30  1  0
  9 31  1  0
 10 32  1  0
 12 33  1  0
 12 34  1  0
 13 35  1  0
 13 36  1  0
 15 37  1  0
 15 38  1  0
 16 39  1  0
 16 40  1  0
 17 41  1  0
 17 42  1  0
 18 43  1  0
 18 44  1  0
 19 45  1  0
 19 46  1  0
 20 47  1  0
 20 48  1  0
 23 49  1  0
M  END
>  <Energy>  (980) 
550.83812694257961

>  <compound_id>  (980) 
9264

>  <target_id>  (980) 
1

>  <reference_id>  (980) 
94

>  <inspiration_ids>  (980) 
[94, 95]

>  <energy_score>  (980) 
504.96918596275543

>  <distance_score>  (980) 
12.893616045364514

>  <path>  (980) 
/opt/xchem-fragalysis-2/maxwin/BulkDock/SCRATCH/511016/C9264-P94/C9264-P94.minimised.mol

>  <scratch_subdir>  (980) 
/opt/xchem-fragalysis-2/maxwin/BulkDock/SCRATCH/511016/C9264-P94

>  <fragmenstein_runtime>  (980) 
48.88278532028198

>  <fragmenstein_outcome>  (980) 
too moved

>  <fragmenstein_mode>  (980) 
expansion

>  <fragmenstein_error>  (980) 


$$$$
C9264-P95
     RDKit          3D

 49 52  0  0  0  0  0  0  0  0999 V2000
   -5.2422  -21.5522   23.7879 C   0  0  0  0  0  0  0  0  0  0  0  0
   -5.7882  -22.4020   22.8243 C   0  0  0  0  0  0  0  0  0  0  0  0
   -6.4035  -21.9034   21.6672 C   0  0  0  0  0  0  0  0  0  0  0  0
   -6.4023  -20.5140   21.5071 C   0  0  0  0  0  0  0  0  0  0  0  0
   -6.7688  -19.6758   20.4709 N   0  0  0  0  0  0  0  0  0  0  0  0
   -6.5583  -18.3485   20.8245 C   0  0  0  0  0  0  0  0  0  0  0  0
   -6.8382  -17.2246   19.9615 N   0  0  0  0  0  0  0  0  0  0  0  0
   -8.0321  -16.0789   20.5795 C   0  0  0  0  0  0  0  0  0  0  0  0
   -8.7054  -14.3723   19.7549 C   0  0  0  0  0  0  0  0  0  0  0  0
   -8.1330  -13.8703   18.4443 C   0  0  0  0  0  0  0  0  0  0  0  0
   -7.8421  -12.7273   17.4465 O   0  0  0  0  0  0  0  0  0  0  0  0
   -6.8915  -11.5188   17.7148 C   0  0  0  0  0  0  0  0  0  0  0  0
   -6.3273  -10.0893   16.5169 C   0  0  0  0  0  0  0  0  0  0  0  0
   -4.9257   -9.5670   16.2213 N   0  0  0  0  0  0  0  0  0  0  0  0
   -4.3889   -9.9542   14.8913 C   0  0  0  0  0  0  0  0  0  0  0  0
   -5.0144   -9.0263   13.8442 C   0  0  0  0  0  0  0  0  0  0  0  0
   -5.4338   -7.7946   14.6296 C   0  0  0  0  0  0  0  0  0  0  0  0
   -4.9483   -8.0768   16.0505 C   0  0  0  0  0  0  0  0  0  0  0  0
   -8.1897  -15.8284   17.7711 C   0  0  0  0  0  0  0  0  0  0  0  0
   -7.2209  -17.4457   18.4674 C   0  0  0  0  0  0  0  0  0  0  0  0
   -6.0846  -18.3562   22.0592 N   0  0  0  0  0  0  0  0  0  0  0  0
   -5.9165  -19.6487   22.4665 C   0  0  0  0  0  0  0  0  0  0  0  0
   -5.3249  -20.1623   23.6325 C   0  0  0  0  0  0  0  0  0  0  0  0
   -4.7515  -21.9665   24.6641 H   0  0  0  0  0  0  0  0  0  0  0  0
   -5.6951  -23.4751   22.9485 H   0  0  0  0  0  0  0  0  0  0  0  0
   -6.7955  -22.5652   20.9029 H   0  0  0  0  0  0  0  0  0  0  0  0
   -7.1803  -19.9778   19.6068 H   0  0  0  0  0  0  0  0  0  0  0  0
   -9.0068  -16.2972   20.1805 H   0  0  0  0  0  0  0  0  0  0  0  0
   -8.0075  -16.4644   21.5874 H   0  0  0  0  0  0  0  0  0  0  0  0
   -9.6035  -14.8010   19.2832 H   0  0  0  0  0  0  0  0  0  0  0  0
   -8.9616  -13.5651   20.4123 H   0  0  0  0  0  0  0  0  0  0  0  0
   -8.9772  -13.1446   18.6251 H   0  0  0  0  0  0  0  0  0  0  0  0
   -5.9476  -12.0399   17.9610 H   0  0  0  0  0  0  0  0  0  0  0  0
   -7.4370  -11.1357   18.5615 H   0  0  0  0  0  0  0  0  0  0  0  0
   -6.8369   -9.9764   15.5624 H   0  0  0  0  0  0  0  0  0  0  0  0
   -6.8239   -9.1958   16.9245 H   0  0  0  0  0  0  0  0  0  0  0  0
   -4.4809  -11.0124   14.6508 H   0  0  0  0  0  0  0  0  0  0  0  0
   -3.3054   -9.7703   14.9125 H   0  0  0  0  0  0  0  0  0  0  0  0
   -4.2950   -8.7781   13.0574 H   0  0  0  0  0  0  0  0  0  0  0  0
   -5.8873   -9.4885   13.3708 H   0  0  0  0  0  0  0  0  0  0  0  0
   -4.9945   -6.8780   14.2249 H   0  0  0  0  0  0  0  0  0  0  0  0
   -6.5234   -7.6889   14.6100 H   0  0  0  0  0  0  0  0  0  0  0  0
   -5.5400   -7.5564   16.8114 H   0  0  0  0  0  0  0  0  0  0  0  0
   -3.9196   -7.7094   16.1650 H   0  0  0  0  0  0  0  0  0  0  0  0
   -7.7222  -15.9177   16.7662 H   0  0  0  0  0  0  0  0  0  0  0  0
   -9.2037  -16.1081   17.7707 H   0  0  0  0  0  0  0  0  0  0  0  0
   -6.1455  -17.5235   18.2040 H   0  0  0  0  0  0  0  0  0  0  0  0
   -7.4707  -18.3705   17.9572 H   0  0  0  0  0  0  0  0  0  0  0  0
   -4.9055  -19.4807   24.3630 H   0  0  0  0  0  0  0  0  0  0  0  0
  1  2  2  0
  2  3  1  0
  3  4  2  0
  4  5  1  0
  5  6  1  0
  6  7  1  0
  7  8  1  0
  8  9  1  0
  9 10  1  0
 10 11  1  0
 11 12  1  0
 12 13  1  0
 13 14  1  0
 14 15  1  0
 15 16  1  0
 16 17  1  0
 17 18  1  0
 10 19  1  0
 19 20  1  0
  6 21  2  0
 21 22  1  0
 22 23  2  0
 23  1  1  0
 22  4  1  0
 20  7  1  0
 18 14  1  0
  1 24  1  0
  2 25  1  0
  3 26  1  0
  5 27  1  0
  8 28  1  0
  8 29  1  0
  9 30  1  0
  9 31  1  0
 10 32  1  0
 12 33  1  0
 12 34  1  0
 13 35  1  0
 13 36  1  0
 15 37  1  0
 15 38  1  0
 16 39  1  0
 16 40  1  0
 17 41  1  0
 17 42  1  0
 18 43  1  0
 18 44  1  0
 19 45  1  0
 19 46  1  0
 20 47  1  0
 20 48  1  0
 23 49  1  0
M  END
>  <Energy>  (981) 
485.96981061285425

>  <compound_id>  (981) 
9264

>  <target_id>  (981) 
1

>  <reference_id>  (981) 
95

>  <inspiration_ids>  (981) 
[94, 95]

>  <energy_score>  (981) 
440.10086963304127

>  <distance_score>  (981) 
13.226524563998822

>  <path>  (981) 
/opt/xchem-fragalysis-2/maxwin/BulkDock/SCRATCH/511016/C9264-P95/C9264-P95.minimised.mol

>  <scratch_subdir>  (981) 
/opt/xchem-fragalysis-2/maxwin/BulkDock/SCRATCH/511016/C9264-P95

>  <fragmenstein_runtime>  (981) 
36.069847106933594

>  <fragmenstein_outcome>  (981) 
too moved

>  <fragmenstein_mode>  (981) 
expansion

>  <fragmenstein_error>  (981) 


$$$$
C9265-P94
     RDKit          3D

 47 50  0  0  0  0  0  0  0  0999 V2000
   -7.8975   -7.0036   18.9809 O   0  0  0  0  0  0  0  0  0  0  0  0
   -8.2319   -8.0492   18.0364 S   0  0  0  0  0  0  0  0  0  0  0  0
   -7.2610   -8.3837   17.0081 O   0  0  0  0  0  0  0  0  0  0  0  0
   -8.6485   -9.6461   19.1688 N   0  0  0  0  0  0  0  0  0  0  0  0
   -8.9586  -11.6842   19.1663 C   0  0  0  0  0  0  0  0  0  0  0  0
   -8.1541  -12.5631   18.2670 C   0  0  0  0  0  0  0  0  0  0  0  0
   -8.5053  -13.7477   19.0773 C   0  0  0  0  0  0  0  0  0  0  0  0
  -10.1065  -13.8117   19.2585 C   0  0  0  0  0  0  0  0  0  0  0  0
  -11.1574  -13.6328   20.8221 N   0  0  0  0  0  0  0  0  0  0  0  0
  -11.8855  -15.3480   21.0718 C   0  0  0  0  0  0  0  0  0  0  0  0
  -12.9150  -15.9066   20.4130 N   0  0  0  0  0  0  0  0  0  0  0  0
  -13.9924  -16.4668   21.2429 C   0  0  0  0  0  0  0  0  0  0  0  0
  -15.2843  -16.9672   20.8431 C   0  0  0  0  0  0  0  0  0  0  0  0
  -16.2530  -17.3083   21.7977 C   0  0  0  0  0  0  0  0  0  0  0  0
  -15.9226  -17.2791   23.1382 C   0  0  0  0  0  0  0  0  0  0  0  0
  -14.6308  -16.9101   23.5299 C   0  0  0  0  0  0  0  0  0  0  0  0
  -13.6680  -16.4811   22.5764 C   0  0  0  0  0  0  0  0  0  0  0  0
  -12.3179  -16.0241   22.5877 N   0  0  0  0  0  0  0  0  0  0  0  0
   -9.4108  -12.9896   20.8836 C   0  0  0  0  0  0  0  0  0  0  0  0
   -9.6088   -7.4882   17.2398 N   0  0  0  0  0  0  0  0  0  0  0  0
  -10.7177   -6.8257   17.9283 C   0  0  0  0  0  0  0  0  0  0  0  0
  -11.4793   -6.1386   16.7894 C   0  0  0  0  0  0  0  0  0  0  0  0
  -10.3676   -5.6062   15.9108 C   0  0  0  0  0  0  0  0  0  0  0  0
   -9.3221   -6.7073   15.9788 C   0  0  0  0  0  0  0  0  0  0  0  0
   -7.8017   -9.5491   19.7221 H   0  0  0  0  0  0  0  0  0  0  0  0
   -7.8551  -11.3956   19.2154 H   0  0  0  0  0  0  0  0  0  0  0  0
   -8.4373  -12.4914   17.2538 H   0  0  0  0  0  0  0  0  0  0  0  0
   -7.0579  -12.4303   18.2346 H   0  0  0  0  0  0  0  0  0  0  0  0
   -7.8400  -13.6703   19.8851 H   0  0  0  0  0  0  0  0  0  0  0  0
   -8.2539  -14.6949   18.6071 H   0  0  0  0  0  0  0  0  0  0  0  0
  -10.4819  -13.0549   18.5435 H   0  0  0  0  0  0  0  0  0  0  0  0
  -10.2555  -14.8831   19.0917 H   0  0  0  0  0  0  0  0  0  0  0  0
  -15.5381  -16.9819   19.7877 H   0  0  0  0  0  0  0  0  0  0  0  0
  -17.2477  -17.6068   21.4788 H   0  0  0  0  0  0  0  0  0  0  0  0
  -16.6631  -17.5422   23.8897 H   0  0  0  0  0  0  0  0  0  0  0  0
  -14.4758  -16.8478   24.5757 H   0  0  0  0  0  0  0  0  0  0  0  0
  -11.8692  -15.6865   23.4038 H   0  0  0  0  0  0  0  0  0  0  0  0
   -8.9390  -12.9448   21.8230 H   0  0  0  0  0  0  0  0  0  0  0  0
   -9.8605  -12.2687   21.6425 H   0  0  0  0  0  0  0  0  0  0  0  0
  -10.3501   -6.0805   18.6411 H   0  0  0  0  0  0  0  0  0  0  0  0
  -11.3490   -7.5511   18.4479 H   0  0  0  0  0  0  0  0  0  0  0  0
  -12.1466   -5.3521   17.1522 H   0  0  0  0  0  0  0  0  0  0  0  0
  -12.0779   -6.8737   16.2377 H   0  0  0  0  0  0  0  0  0  0  0  0
  -10.6919   -5.3944   14.8887 H   0  0  0  0  0  0  0  0  0  0  0  0
   -9.9642   -4.6805   16.3380 H   0  0  0  0  0  0  0  0  0  0  0  0
   -9.4277   -7.3949   15.1366 H   0  0  0  0  0  0  0  0  0  0  0  0
   -8.3181   -6.2731   15.9665 H   0  0  0  0  0  0  0  0  0  0  0  0
  1  2  2  0
  2  3  2  0
  2  4  1  0
  4  5  1  0
  5  6  1  0
  6  7  1  0
  7  8  1  0
  8  9  1  0
  9 10  1  0
 10 11  2  0
 11 12  1  0
 12 13  2  0
 13 14  1  0
 14 15  2  0
 15 16  1  0
 16 17  2  0
 17 18  1  0
  9 19  1  0
  2 20  1  0
 20 21  1  0
 21 22  1  0
 22 23  1  0
 23 24  1  0
 19  5  1  0
 24 20  1  0
 18 10  1  0
 17 12  1  0
  4 25  1  0
  5 26  1  0
  6 27  1  0
  6 28  1  0
  7 29  1  0
  7 30  1  0
  8 31  1  0
  8 32  1  0
 13 33  1  0
 14 34  1  0
 15 35  1  0
 16 36  1  0
 18 37  1  0
 19 38  1  0
 19 39  1  0
 21 40  1  0
 21 41  1  0
 22 42  1  0
 22 43  1  0
 23 44  1  0
 23 45  1  0
 24 46  1  0
 24 47  1  0
M  END
>  <Energy>  (982) 
573.31351709769899

>  <compound_id>  (982) 
9265

>  <target_id>  (982) 
1

>  <reference_id>  (982) 
94

>  <inspiration_ids>  (982) 
[94, 95]

>  <energy_score>  (982) 
670.7091729666095

>  <distance_score>  (982) 
12.883390330789844

>  <path>  (982) 
/opt/xchem-fragalysis-2/maxwin/BulkDock/SCRATCH/511016/C9265-P94/C9265-P94.minimised.mol

>  <scratch_subdir>  (982) 
/opt/xchem-fragalysis-2/maxwin/BulkDock/SCRATCH/511016/C9265-P94

>  <fragmenstein_runtime>  (982) 
30.485430240631104

>  <fragmenstein_outcome>  (982) 
too moved

>  <fragmenstein_mode>  (982) 
expansion

>  <fragmenstein_error>  (982) 


$$$$
C9265-P95
     RDKit          3D

 47 50  0  0  0  0  0  0  0  0999 V2000
   -7.1503  -14.4862   13.1253 O   0  0  0  0  0  0  0  0  0  0  0  0
   -8.0003  -15.3200   13.9750 S   0  0  0  0  0  0  0  0  0  0  0  0
   -8.3123  -16.6074   13.3867 O   0  0  0  0  0  0  0  0  0  0  0  0
   -7.3619  -15.7847   16.0732 N   0  0  0  0  0  0  0  0  0  0  0  0
   -8.0646  -16.7445   17.6767 C   0  0  0  0  0  0  0  0  0  0  0  0
   -6.7728  -17.9731   18.3432 C   0  0  0  0  0  0  0  0  0  0  0  0
   -6.6423  -18.6743   19.7206 C   0  0  0  0  0  0  0  0  0  0  0  0
   -6.6809  -17.9139   21.0127 C   0  0  0  0  0  0  0  0  0  0  0  0
   -7.7401  -16.7848   21.2390 N   0  0  0  0  0  0  0  0  0  0  0  0
   -7.8363  -16.8036   22.9927 C   0  0  0  0  0  0  0  0  0  0  0  0
   -9.3861  -16.5615   23.9005 N   0  0  0  0  0  0  0  0  0  0  0  0
   -9.1057  -16.2344   25.5213 C   0  0  0  0  0  0  0  0  0  0  0  0
   -9.7212  -16.5269   26.7758 C   0  0  0  0  0  0  0  0  0  0  0  0
   -9.6143  -15.8038   27.9615 C   0  0  0  0  0  0  0  0  0  0  0  0
   -8.8292  -14.7002   27.9632 C   0  0  0  0  0  0  0  0  0  0  0  0
   -8.0890  -14.4511   26.8129 C   0  0  0  0  0  0  0  0  0  0  0  0
   -8.0990  -15.3308   25.5799 C   0  0  0  0  0  0  0  0  0  0  0  0
   -7.2971  -15.4521   24.2869 N   0  0  0  0  0  0  0  0  0  0  0  0
   -8.5800  -16.1066   19.5542 C   0  0  0  0  0  0  0  0  0  0  0  0
   -9.4559  -14.2976   13.8453 N   0  0  0  0  0  0  0  0  0  0  0  0
  -10.2880  -14.6719   12.6067 C   0  0  0  0  0  0  0  0  0  0  0  0
  -10.4915  -13.4099   11.7658 C   0  0  0  0  0  0  0  0  0  0  0  0
  -10.4419  -12.3134   12.7908 C   0  0  0  0  0  0  0  0  0  0  0  0
   -9.2763  -12.7793   13.6488 C   0  0  0  0  0  0  0  0  0  0  0  0
   -6.9017  -14.9274   16.3821 H   0  0  0  0  0  0  0  0  0  0  0  0
   -8.6341  -17.5239   17.1990 H   0  0  0  0  0  0  0  0  0  0  0  0
   -7.0370  -18.8213   17.7570 H   0  0  0  0  0  0  0  0  0  0  0  0
   -5.7406  -17.6167   18.2321 H   0  0  0  0  0  0  0  0  0  0  0  0
   -5.7026  -19.2450   19.6956 H   0  0  0  0  0  0  0  0  0  0  0  0
   -7.3876  -19.4477   19.8285 H   0  0  0  0  0  0  0  0  0  0  0  0
   -6.8204  -18.6511   21.8137 H   0  0  0  0  0  0  0  0  0  0  0  0
   -5.6865  -17.5157   21.1516 H   0  0  0  0  0  0  0  0  0  0  0  0
  -10.3482  -17.3598   26.8917 H   0  0  0  0  0  0  0  0  0  0  0  0
  -10.2093  -16.0751   28.8253 H   0  0  0  0  0  0  0  0  0  0  0  0
   -8.7361  -14.0622   28.8346 H   0  0  0  0  0  0  0  0  0  0  0  0
   -7.3477  -13.6422   26.8673 H   0  0  0  0  0  0  0  0  0  0  0  0
   -6.6083  -14.8747   23.8542 H   0  0  0  0  0  0  0  0  0  0  0  0
   -8.9156  -15.0599   19.5046 H   0  0  0  0  0  0  0  0  0  0  0  0
   -7.5529  -16.5103   19.5025 H   0  0  0  0  0  0  0  0  0  0  0  0
  -11.2505  -15.0494   12.9700 H   0  0  0  0  0  0  0  0  0  0  0  0
   -9.8334  -15.4502   11.9905 H   0  0  0  0  0  0  0  0  0  0  0  0
  -11.4319  -13.4328   11.2081 H   0  0  0  0  0  0  0  0  0  0  0  0
   -9.6705  -13.3016   11.0468 H   0  0  0  0  0  0  0  0  0  0  0  0
  -10.2740  -11.3253   12.3535 H   0  0  0  0  0  0  0  0  0  0  0  0
  -11.3673  -12.2868   13.3778 H   0  0  0  0  0  0  0  0  0  0  0  0
   -9.2989  -12.2424   14.5938 H   0  0  0  0  0  0  0  0  0  0  0  0
   -8.3616  -12.5403   13.0998 H   0  0  0  0  0  0  0  0  0  0  0  0
  1  2  2  0
  2  3  2  0
  2  4  1  0
  4  5  1  0
  5  6  1  0
  6  7  1  0
  7  8  1  0
  8  9  1  0
  9 10  1  0
 10 11  2  0
 11 12  1  0
 12 13  2  0
 13 14  1  0
 14 15  2  0
 15 16  1  0
 16 17  2  0
 17 18  1  0
  9 19  1  0
  2 20  1  0
 20 21  1  0
 21 22  1  0
 22 23  1  0
 23 24  1  0
 19  5  1  0
 24 20  1  0
 18 10  1  0
 17 12  1  0
  4 25  1  0
  5 26  1  0
  6 27  1  0
  6 28  1  0
  7 29  1  0
  7 30  1  0
  8 31  1  0
  8 32  1  0
 13 33  1  0
 14 34  1  0
 15 35  1  0
 16 36  1  0
 18 37  1  0
 19 38  1  0
 19 39  1  0
 21 40  1  0
 21 41  1  0
 22 42  1  0
 22 43  1  0
 23 44  1  0
 23 45  1  0
 24 46  1  0
 24 47  1  0
M  END
>  <Energy>  (983) 
647.60993322735703

>  <compound_id>  (983) 
9265

>  <target_id>  (983) 
1

>  <reference_id>  (983) 
95

>  <inspiration_ids>  (983) 
[94, 95]

>  <energy_score>  (983) 
745.0055890962568

>  <distance_score>  (983) 
13.367618845584223

>  <path>  (983) 
/opt/xchem-fragalysis-2/maxwin/BulkDock/SCRATCH/511016/C9265-P95/C9265-P95.minimised.mol

>  <scratch_subdir>  (983) 
/opt/xchem-fragalysis-2/maxwin/BulkDock/SCRATCH/511016/C9265-P95

>  <fragmenstein_runtime>  (983) 
31.75447726249695

>  <fragmenstein_outcome>  (983) 
too moved

>  <fragmenstein_mode>  (983) 
expansion

>  <fragmenstein_error>  (983) 


$$$$
C6221-P94
     RDKit          3D

 49 52  0  0  0  0  0  0  0  0999 V2000
   -8.7863  -10.1275   11.8192 O   0  0  0  0  0  0  0  0  0  0  0  0
   -8.1838   -9.7054   12.7807 C   0  0  0  0  0  0  0  0  0  0  0  0
   -8.0292  -10.3720   14.2844 N   0  0  0  0  0  0  0  0  0  0  0  0
   -8.7945  -11.8716   15.0293 C   0  0  0  0  0  0  0  0  0  0  0  0
   -8.2129  -12.3987   16.9477 C   0  0  0  0  0  0  0  0  0  0  0  0
   -7.2642  -13.7646   17.8596 C   0  0  0  0  0  0  0  0  0  0  0  0
   -7.5636  -14.4269   19.2148 N   0  0  0  0  0  0  0  0  0  0  0  0
   -6.9288  -14.0166   20.3875 C   0  0  0  0  0  0  0  0  0  0  0  0
   -7.1658  -14.7691   21.4403 N   0  0  0  0  0  0  0  0  0  0  0  0
   -7.8910  -15.8161   20.9728 C   0  0  0  0  0  0  0  0  0  0  0  0
   -8.3477  -16.9385   21.7040 C   0  0  0  0  0  0  0  0  0  0  0  0
   -9.0096  -17.9665   21.0400 C   0  0  0  0  0  0  0  0  0  0  0  0
   -9.1951  -17.8728   19.6644 C   0  0  0  0  0  0  0  0  0  0  0  0
   -8.7460  -16.7556   18.9194 C   0  0  0  0  0  0  0  0  0  0  0  0
   -8.1103  -15.6889   19.5854 C   0  0  0  0  0  0  0  0  0  0  0  0
   -7.3521   -7.9894   12.6112 C   0  0  0  0  0  0  0  0  0  0  0  0
   -7.8411   -7.8858   14.1584 C   0  0  0  0  0  0  0  0  0  0  0  0
   -8.3660   -6.4291   14.9008 C   0  0  0  0  0  0  0  0  0  0  0  0
   -8.7098   -5.2263   14.3228 C   0  0  0  0  0  0  0  0  0  0  0  0
   -8.0483   -4.9599   13.2194 N   0  0  0  0  0  0  0  0  0  0  0  0
   -7.2554   -6.0035   12.4408 C   0  0  0  0  0  0  0  0  0  0  0  0
   -7.3606   -5.0513   10.8653 N   0  0  0  0  0  0  0  0  0  0  0  0
   -7.0085   -5.4456    9.4083 C   0  0  0  0  0  0  0  0  0  0  0  0
   -7.7357   -4.6542    8.2473 C   0  0  0  0  0  0  0  0  0  0  0  0
   -8.9188   -3.9732    8.8309 C   0  0  0  0  0  0  0  0  0  0  0  0
   -9.2299   -4.6832   10.2686 C   0  0  0  0  0  0  0  0  0  0  0  0
   -7.4017   -9.8214   14.8294 H   0  0  0  0  0  0  0  0  0  0  0  0
   -9.8602  -11.7864   14.9511 H   0  0  0  0  0  0  0  0  0  0  0  0
   -8.8431  -12.6440   14.2220 H   0  0  0  0  0  0  0  0  0  0  0  0
   -9.0877  -12.4148   17.6424 H   0  0  0  0  0  0  0  0  0  0  0  0
   -7.5501  -11.5811   17.3133 H   0  0  0  0  0  0  0  0  0  0  0  0
   -6.9613  -14.5667   17.1779 H   0  0  0  0  0  0  0  0  0  0  0  0
   -6.3158  -13.2539   18.0944 H   0  0  0  0  0  0  0  0  0  0  0  0
   -6.3112  -13.1274   20.4010 H   0  0  0  0  0  0  0  0  0  0  0  0
   -8.1474  -16.9902   22.7685 H   0  0  0  0  0  0  0  0  0  0  0  0
   -9.3499  -18.8428   21.5828 H   0  0  0  0  0  0  0  0  0  0  0  0
   -9.6851  -18.6901   19.1366 H   0  0  0  0  0  0  0  0  0  0  0  0
   -8.8862  -16.7495   17.8440 H   0  0  0  0  0  0  0  0  0  0  0  0
   -8.8165   -8.4686   14.2176 H   0  0  0  0  0  0  0  0  0  0  0  0
   -7.9105   -6.2510   15.8895 H   0  0  0  0  0  0  0  0  0  0  0  0
   -9.2618   -4.4208   14.7766 H   0  0  0  0  0  0  0  0  0  0  0  0
   -6.0525   -5.2192    9.1465 H   0  0  0  0  0  0  0  0  0  0  0  0
   -6.9581   -6.5367    9.3555 H   0  0  0  0  0  0  0  0  0  0  0  0
   -7.0836   -3.9345    7.7350 H   0  0  0  0  0  0  0  0  0  0  0  0
   -8.0329   -5.3034    7.4159 H   0  0  0  0  0  0  0  0  0  0  0  0
   -8.6685   -2.9154    8.9704 H   0  0  0  0  0  0  0  0  0  0  0  0
   -9.6729   -3.9036    8.0630 H   0  0  0  0  0  0  0  0  0  0  0  0
  -10.0758   -5.2261   10.6692 H   0  0  0  0  0  0  0  0  0  0  0  0
   -9.6995   -3.9009   10.8849 H   0  0  0  0  0  0  0  0  0  0  0  0
  1  2  2  0
  2  3  1  0
  3  4  1  0
  4  5  1  0
  5  6  1  0
  6  7  1  0
  7  8  1  0
  8  9  2  0
  9 10  1  0
 10 11  2  0
 11 12  1  0
 12 13  2  0
 13 14  1  0
 14 15  2  0
  2 16  1  0
 16 17  2  0
 17 18  1  0
 18 19  2  0
 19 20  1  0
 20 21  2  0
 21 22  1  0
 22 23  1  0
 23 24  1  0
 24 25  1  0
 25 26  1  0
 15  7  1  0
 21 16  1  0
 26 22  1  0
 15 10  1  0
  3 27  1  0
  4 28  1  0
  4 29  1  0
  5 30  1  0
  5 31  1  0
  6 32  1  0
  6 33  1  0
  8 34  1  0
 11 35  1  0
 12 36  1  0
 13 37  1  0
 14 38  1  0
 17 39  1  0
 18 40  1  0
 19 41  1  0
 23 42  1  0
 23 43  1  0
 24 44  1  0
 24 45  1  0
 25 46  1  0
 25 47  1  0
 26 48  1  0
 26 49  1  0
M  END
>  <Energy>  (984) 
808.70706210665264

>  <compound_id>  (984) 
6221

>  <target_id>  (984) 
1

>  <reference_id>  (984) 
94

>  <inspiration_ids>  (984) 
[94, 95]

>  <energy_score>  (984) 
745.7347521208063

>  <distance_score>  (984) 
12.1345588074895

>  <path>  (984) 
/opt/xchem-fragalysis-2/maxwin/BulkDock/SCRATCH/511016/C6221-P94/C6221-P94.minimised.mol

>  <scratch_subdir>  (984) 
/opt/xchem-fragalysis-2/maxwin/BulkDock/SCRATCH/511016/C6221-P94

>  <fragmenstein_runtime>  (984) 
26.564289331436157

>  <fragmenstein_outcome>  (984) 
too moved

>  <fragmenstein_mode>  (984) 
expansion

>  <fragmenstein_error>  (984) 


$$$$
C6221-P95
     RDKit          3D

 49 52  0  0  0  0  0  0  0  0999 V2000
   -8.2113  -16.6722   14.5499 O   0  0  0  0  0  0  0  0  0  0  0  0
   -9.3911  -16.5991   14.7724 C   0  0  0  0  0  0  0  0  0  0  0  0
  -10.2095  -17.1510   15.9199 N   0  0  0  0  0  0  0  0  0  0  0  0
   -9.8128  -18.0426   17.0775 C   0  0  0  0  0  0  0  0  0  0  0  0
  -10.6683  -18.0938   18.4541 C   0  0  0  0  0  0  0  0  0  0  0  0
  -10.1552  -19.1917   19.4681 C   0  0  0  0  0  0  0  0  0  0  0  0
  -10.7572  -19.3231   20.7944 N   0  0  0  0  0  0  0  0  0  0  0  0
  -10.3083  -18.6672   21.9165 C   0  0  0  0  0  0  0  0  0  0  0  0
  -10.8108  -19.1644   23.0240 N   0  0  0  0  0  0  0  0  0  0  0  0
  -11.5964  -20.2170   22.6233 C   0  0  0  0  0  0  0  0  0  0  0  0
  -12.3220  -21.1328   23.3981 C   0  0  0  0  0  0  0  0  0  0  0  0
  -13.1353  -22.0691   22.7683 C   0  0  0  0  0  0  0  0  0  0  0  0
  -13.1705  -22.1353   21.3792 C   0  0  0  0  0  0  0  0  0  0  0  0
  -12.3917  -21.2817   20.5837 C   0  0  0  0  0  0  0  0  0  0  0  0
  -11.6197  -20.3126   21.2333 C   0  0  0  0  0  0  0  0  0  0  0  0
  -10.1884  -15.8897   13.6152 C   0  0  0  0  0  0  0  0  0  0  0  0
  -11.3545  -16.5830   13.2402 C   0  0  0  0  0  0  0  0  0  0  0  0
  -12.1221  -16.2150   12.1400 C   0  0  0  0  0  0  0  0  0  0  0  0
  -11.6963  -15.1494   11.3884 C   0  0  0  0  0  0  0  0  0  0  0  0
  -10.5939  -14.4339   11.6747 N   0  0  0  0  0  0  0  0  0  0  0  0
   -9.8283  -14.7633   12.7663 C   0  0  0  0  0  0  0  0  0  0  0  0
   -8.7033  -13.9120   12.9223 N   0  0  0  0  0  0  0  0  0  0  0  0
   -9.0152  -12.4593   12.6753 C   0  0  0  0  0  0  0  0  0  0  0  0
   -7.8979  -11.9049   11.7982 C   0  0  0  0  0  0  0  0  0  0  0  0
   -7.5842  -13.0969   10.9284 C   0  0  0  0  0  0  0  0  0  0  0  0
   -7.6518  -14.2594   11.9278 C   0  0  0  0  0  0  0  0  0  0  0  0
  -11.1903  -16.9719   15.7464 H   0  0  0  0  0  0  0  0  0  0  0  0
   -9.7979  -19.0545   16.6568 H   0  0  0  0  0  0  0  0  0  0  0  0
   -8.7763  -17.7825   17.3193 H   0  0  0  0  0  0  0  0  0  0  0  0
  -10.6262  -17.1047   18.9241 H   0  0  0  0  0  0  0  0  0  0  0  0
  -11.7174  -18.2901   18.2055 H   0  0  0  0  0  0  0  0  0  0  0  0
  -10.2358  -20.1728   18.9847 H   0  0  0  0  0  0  0  0  0  0  0  0
   -9.0838  -19.0235   19.6386 H   0  0  0  0  0  0  0  0  0  0  0  0
   -9.5976  -17.8521   21.8613 H   0  0  0  0  0  0  0  0  0  0  0  0
  -12.2770  -21.1049   24.4779 H   0  0  0  0  0  0  0  0  0  0  0  0
  -13.7382  -22.7432   23.3725 H   0  0  0  0  0  0  0  0  0  0  0  0
  -13.8066  -22.8765   20.8986 H   0  0  0  0  0  0  0  0  0  0  0  0
  -12.4192  -21.3615   19.5021 H   0  0  0  0  0  0  0  0  0  0  0  0
  -11.6551  -17.4852   13.7678 H   0  0  0  0  0  0  0  0  0  0  0  0
  -13.0105  -16.7708   11.8620 H   0  0  0  0  0  0  0  0  0  0  0  0
  -12.2429  -14.8242   10.5083 H   0  0  0  0  0  0  0  0  0  0  0  0
   -9.9560  -12.2964   12.1449 H   0  0  0  0  0  0  0  0  0  0  0  0
   -9.0682  -11.9198   13.6250 H   0  0  0  0  0  0  0  0  0  0  0  0
   -8.2092  -11.0258   11.2270 H   0  0  0  0  0  0  0  0  0  0  0  0
   -7.0266  -11.6333   12.4033 H   0  0  0  0  0  0  0  0  0  0  0  0
   -8.3486  -13.2181   10.1519 H   0  0  0  0  0  0  0  0  0  0  0  0
   -6.6071  -13.0251   10.4428 H   0  0  0  0  0  0  0  0  0  0  0  0
   -6.6995  -14.3365   12.4664 H   0  0  0  0  0  0  0  0  0  0  0  0
   -7.8159  -15.2168   11.4180 H   0  0  0  0  0  0  0  0  0  0  0  0
  1  2  2  0
  2  3  1  0
  3  4  1  0
  4  5  1  0
  5  6  1  0
  6  7  1  0
  7  8  1  0
  8  9  2  0
  9 10  1  0
 10 11  2  0
 11 12  1  0
 12 13  2  0
 13 14  1  0
 14 15  2  0
  2 16  1  0
 16 17  2  0
 17 18  1  0
 18 19  2  0
 19 20  1  0
 20 21  2  0
 21 22  1  0
 22 23  1  0
 23 24  1  0
 24 25  1  0
 25 26  1  0
 15  7  1  0
 21 16  1  0
 26 22  1  0
 15 10  1  0
  3 27  1  0
  4 28  1  0
  4 29  1  0
  5 30  1  0
  5 31  1  0
  6 32  1  0
  6 33  1  0
  8 34  1  0
 11 35  1  0
 12 36  1  0
 13 37  1  0
 14 38  1  0
 17 39  1  0
 18 40  1  0
 19 41  1  0
 23 42  1  0
 23 43  1  0
 24 44  1  0
 24 45  1  0
 25 46  1  0
 25 47  1  0
 26 48  1  0
 26 49  1  0
M  END
>  <Energy>  (985) 
62.269689622811406

>  <compound_id>  (985) 
6221

>  <target_id>  (985) 
1

>  <reference_id>  (985) 
95

>  <inspiration_ids>  (985) 
[94, 95]

>  <energy_score>  (985) 
-0.7026203630307464

>  <distance_score>  (985) 
13.748719148556058

>  <path>  (985) 
/opt/xchem-fragalysis-2/maxwin/BulkDock/SCRATCH/511016/C6221-P95/C6221-P95.minimised.mol

>  <scratch_subdir>  (985) 
/opt/xchem-fragalysis-2/maxwin/BulkDock/SCRATCH/511016/C6221-P95

>  <fragmenstein_runtime>  (985) 
33.79026007652283

>  <fragmenstein_outcome>  (985) 
too moved

>  <fragmenstein_mode>  (985) 
expansion

>  <fragmenstein_error>  (985) 


$$$$
C9273-P94
     RDKit          3D

 50 52  0  0  0  0  0  0  0  0999 V2000
   -8.7258  -11.0223   14.9893 C   0  0  0  0  0  0  0  0  0  0  0  0
   -8.8859  -10.8954   16.5342 C   0  0  0  0  0  0  0  0  0  0  0  0
   -9.1702   -9.4038   16.7928 C   0  0  0  0  0  0  0  0  0  0  0  0
   -7.7139  -11.7029   17.4416 C   0  0  0  0  0  0  0  0  0  0  0  0
   -8.3215  -13.0189   18.6246 C   0  0  0  0  0  0  0  0  0  0  0  0
   -8.1501  -14.1138   20.0025 N   0  0  0  0  0  0  0  0  0  0  0  0
   -7.9800  -15.9437   20.7444 C   0  0  0  0  0  0  0  0  0  0  0  0
   -8.0621  -16.8957   22.6020 C   0  0  0  0  0  0  0  0  0  0  0  0
   -7.3217  -18.0435   22.4309 N   0  0  0  0  0  0  0  0  0  0  0  0
   -7.9924  -19.1823   22.7710 C   0  0  0  0  0  0  0  0  0  0  0  0
   -7.6493  -20.5601   22.2510 C   0  0  0  0  0  0  0  0  0  0  0  0
   -8.6300  -21.6484   22.1517 C   0  0  0  0  0  0  0  0  0  0  0  0
   -9.9780  -21.5099   22.6415 C   0  0  0  0  0  0  0  0  0  0  0  0
  -10.4322  -20.3022   23.3527 C   0  0  0  0  0  0  0  0  0  0  0  0
   -9.5181  -18.8264   23.5200 C   0  0  0  0  0  0  0  0  0  0  0  0
   -9.5712  -16.9608   24.0335 N   0  0  0  0  0  0  0  0  0  0  0  0
   -9.2468  -16.4651   25.6398 C   0  0  0  0  0  0  0  0  0  0  0  0
   -6.4055  -11.0063   17.5769 N   0  0  0  0  0  0  0  0  0  0  0  0
   -5.6598  -10.8095   16.3089 C   0  0  0  0  0  0  0  0  0  0  0  0
   -5.6585   -9.3265   15.9782 C   0  0  0  0  0  0  0  0  0  0  0  0
   -5.7395   -8.6764   17.3387 C   0  0  0  0  0  0  0  0  0  0  0  0
   -6.4008   -9.7121   18.2542 C   0  0  0  0  0  0  0  0  0  0  0  0
   -8.5176  -12.0578   14.7039 H   0  0  0  0  0  0  0  0  0  0  0  0
   -7.9294  -10.3941   14.5921 H   0  0  0  0  0  0  0  0  0  0  0  0
   -9.6555  -10.7280   14.4889 H   0  0  0  0  0  0  0  0  0  0  0  0
   -9.8237  -11.3985   16.7990 H   0  0  0  0  0  0  0  0  0  0  0  0
  -10.0659   -9.0903   16.2429 H   0  0  0  0  0  0  0  0  0  0  0  0
   -9.3836   -9.2333   17.8512 H   0  0  0  0  0  0  0  0  0  0  0  0
   -8.3624   -8.7467   16.4769 H   0  0  0  0  0  0  0  0  0  0  0  0
   -7.4249  -12.4486   16.6830 H   0  0  0  0  0  0  0  0  0  0  0  0
   -9.3846  -12.7922   18.6607 H   0  0  0  0  0  0  0  0  0  0  0  0
   -7.9436  -13.7643   17.9566 H   0  0  0  0  0  0  0  0  0  0  0  0
   -7.2185  -13.7362   20.1590 H   0  0  0  0  0  0  0  0  0  0  0  0
   -8.8506  -16.0957   20.1273 H   0  0  0  0  0  0  0  0  0  0  0  0
   -7.1215  -16.5202   20.3503 H   0  0  0  0  0  0  0  0  0  0  0  0
   -6.6876  -20.6592   21.7541 H   0  0  0  0  0  0  0  0  0  0  0  0
   -8.3322  -22.5648   21.6484 H   0  0  0  0  0  0  0  0  0  0  0  0
  -10.6787  -22.3284   22.5322 H   0  0  0  0  0  0  0  0  0  0  0  0
  -11.4255  -20.3918   23.8085 H   0  0  0  0  0  0  0  0  0  0  0  0
   -8.3484  -15.8484   25.5631 H   0  0  0  0  0  0  0  0  0  0  0  0
  -10.1164  -15.9582   26.0188 H   0  0  0  0  0  0  0  0  0  0  0  0
   -9.2562  -17.2698   26.3578 H   0  0  0  0  0  0  0  0  0  0  0  0
   -6.0061  -11.4214   15.4707 H   0  0  0  0  0  0  0  0  0  0  0  0
   -4.6257  -11.1253   16.4993 H   0  0  0  0  0  0  0  0  0  0  0  0
   -6.5141   -9.0395   15.3660 H   0  0  0  0  0  0  0  0  0  0  0  0
   -4.7549   -9.0277   15.4375 H   0  0  0  0  0  0  0  0  0  0  0  0
   -6.2928   -7.7328   17.3110 H   0  0  0  0  0  0  0  0  0  0  0  0
   -4.7282   -8.4585   17.7034 H   0  0  0  0  0  0  0  0  0  0  0  0
   -7.3867   -9.3796   18.5743 H   0  0  0  0  0  0  0  0  0  0  0  0
   -5.8089   -9.8008   19.1728 H   0  0  0  0  0  0  0  0  0  0  0  0
  1  2  1  0
  2  3  1  0
  2  4  1  0
  4  5  1  0
  5  6  1  0
  6  7  1  0
  7  8  1  0
  8  9  2  0
  9 10  1  0
 10 11  2  0
 11 12  1  0
 12 13  2  0
 13 14  1  0
 14 15  2  0
 15 16  1  0
 16 17  1  0
  4 18  1  0
 18 19  1  0
 19 20  1  0
 20 21  1  0
 21 22  1  0
 16  8  1  0
 22 18  1  0
 15 10  1  0
  1 23  1  0
  1 24  1  0
  1 25  1  0
  2 26  1  0
  3 27  1  0
  3 28  1  0
  3 29  1  0
  4 30  1  0
  5 31  1  0
  5 32  1  0
  6 33  1  0
  7 34  1  0
  7 35  1  0
 11 36  1  0
 12 37  1  0
 13 38  1  0
 14 39  1  0
 17 40  1  0
 17 41  1  0
 17 42  1  0
 19 43  1  0
 19 44  1  0
 20 45  1  0
 20 46  1  0
 21 47  1  0
 21 48  1  0
 22 49  1  0
 22 50  1  0
M  END
>  <Energy>  (986) 
835.47789356530768

>  <compound_id>  (986) 
9273

>  <target_id>  (986) 
1

>  <reference_id>  (986) 
94

>  <inspiration_ids>  (986) 
[94, 95]

>  <energy_score>  (986) 
723.4623976674571

>  <distance_score>  (986) 
12.7950338377389

>  <path>  (986) 
/opt/xchem-fragalysis-2/maxwin/BulkDock/SCRATCH/511016/C9273-P94/C9273-P94.minimised.mol

>  <scratch_subdir>  (986) 
/opt/xchem-fragalysis-2/maxwin/BulkDock/SCRATCH/511016/C9273-P94

>  <fragmenstein_runtime>  (986) 
42.41287803649902

>  <fragmenstein_outcome>  (986) 
too moved

>  <fragmenstein_mode>  (986) 
expansion

>  <fragmenstein_error>  (986) 


$$$$
C9273-P95
     RDKit          3D

 50 52  0  0  0  0  0  0  0  0999 V2000
  -16.3345  -11.0520   14.6334 C   0  0  0  0  0  0  0  0  0  0  0  0
  -15.5601  -10.7786   15.9400 C   0  0  0  0  0  0  0  0  0  0  0  0
  -14.9704   -9.3348   15.7683 C   0  0  0  0  0  0  0  0  0  0  0  0
  -14.4438  -11.8822   16.3308 C   0  0  0  0  0  0  0  0  0  0  0  0
  -14.9547  -13.3788   17.4460 C   0  0  0  0  0  0  0  0  0  0  0  0
  -14.2934  -14.9296   18.2537 N   0  0  0  0  0  0  0  0  0  0  0  0
  -13.2242  -15.8733   19.7505 C   0  0  0  0  0  0  0  0  0  0  0  0
  -13.6507  -16.0382   21.6493 C   0  0  0  0  0  0  0  0  0  0  0  0
  -13.1190  -16.9614   22.4263 N   0  0  0  0  0  0  0  0  0  0  0  0
  -13.4084  -17.3961   24.1100 C   0  0  0  0  0  0  0  0  0  0  0  0
  -14.2075  -18.4078   25.0188 C   0  0  0  0  0  0  0  0  0  0  0  0
  -15.2954  -18.0040   25.9450 C   0  0  0  0  0  0  0  0  0  0  0  0
  -15.3879  -16.6912   26.2621 C   0  0  0  0  0  0  0  0  0  0  0  0
  -14.6987  -15.6738   25.3747 C   0  0  0  0  0  0  0  0  0  0  0  0
  -13.9446  -16.1855   24.2756 C   0  0  0  0  0  0  0  0  0  0  0  0
  -13.1507  -15.8260   23.0564 N   0  0  0  0  0  0  0  0  0  0  0  0
  -11.8792  -15.6799   23.4685 C   0  0  0  0  0  0  0  0  0  0  0  0
  -13.6370  -11.8449   15.0623 N   0  0  0  0  0  0  0  0  0  0  0  0
  -12.3550  -11.1446   15.0275 C   0  0  0  0  0  0  0  0  0  0  0  0
  -12.1148  -11.0321   13.5285 C   0  0  0  0  0  0  0  0  0  0  0  0
  -12.7084  -12.3221   12.9687 C   0  0  0  0  0  0  0  0  0  0  0  0
  -13.6200  -12.8889   14.0727 C   0  0  0  0  0  0  0  0  0  0  0  0
  -17.1924  -10.3744   14.5562 H   0  0  0  0  0  0  0  0  0  0  0  0
  -15.7257  -10.9066   13.7357 H   0  0  0  0  0  0  0  0  0  0  0  0
  -16.7234  -12.0753   14.6317 H   0  0  0  0  0  0  0  0  0  0  0  0
  -16.2735  -10.7542   16.7733 H   0  0  0  0  0  0  0  0  0  0  0  0
  -15.7885   -8.6063   15.7338 H   0  0  0  0  0  0  0  0  0  0  0  0
  -14.3351   -9.0746   16.6206 H   0  0  0  0  0  0  0  0  0  0  0  0
  -14.3966   -9.2207   14.8446 H   0  0  0  0  0  0  0  0  0  0  0  0
  -13.8669  -11.3130   17.0779 H   0  0  0  0  0  0  0  0  0  0  0  0
  -15.6057  -13.8892   16.7229 H   0  0  0  0  0  0  0  0  0  0  0  0
  -15.6315  -12.9316   18.1766 H   0  0  0  0  0  0  0  0  0  0  0  0
  -13.9207  -15.2442   17.3990 H   0  0  0  0  0  0  0  0  0  0  0  0
  -12.1959  -15.8666   19.5521 H   0  0  0  0  0  0  0  0  0  0  0  0
  -14.0189  -16.6523   19.7730 H   0  0  0  0  0  0  0  0  0  0  0  0
  -14.2601  -19.4490   24.6222 H   0  0  0  0  0  0  0  0  0  0  0  0
  -16.0838  -18.7154   26.1494 H   0  0  0  0  0  0  0  0  0  0  0  0
  -16.1160  -16.3838   27.0136 H   0  0  0  0  0  0  0  0  0  0  0  0
  -14.9012  -14.6115   25.4853 H   0  0  0  0  0  0  0  0  0  0  0  0
  -11.4187  -14.9701   22.8219 H   0  0  0  0  0  0  0  0  0  0  0  0
  -12.1290  -15.3673   24.4985 H   0  0  0  0  0  0  0  0  0  0  0  0
  -11.3443  -16.6123   23.6108 H   0  0  0  0  0  0  0  0  0  0  0  0
  -11.5609  -11.7345   15.4969 H   0  0  0  0  0  0  0  0  0  0  0  0
  -12.3714  -10.1579   15.4967 H   0  0  0  0  0  0  0  0  0  0  0  0
  -11.0546  -10.9229   13.2819 H   0  0  0  0  0  0  0  0  0  0  0  0
  -12.6525  -10.1686   13.1184 H   0  0  0  0  0  0  0  0  0  0  0  0
  -11.9146  -13.0402   12.7339 H   0  0  0  0  0  0  0  0  0  0  0  0
  -13.2669  -12.1215   12.0482 H   0  0  0  0  0  0  0  0  0  0  0  0
  -13.2039  -13.8211   14.4651 H   0  0  0  0  0  0  0  0  0  0  0  0
  -14.6140  -13.1104   13.6740 H   0  0  0  0  0  0  0  0  0  0  0  0
  1  2  1  0
  2  3  1  0
  2  4  1  0
  4  5  1  0
  5  6  1  0
  6  7  1  0
  7  8  1  0
  8  9  2  0
  9 10  1  0
 10 11  2  0
 11 12  1  0
 12 13  2  0
 13 14  1  0
 14 15  2  0
 15 16  1  0
 16 17  1  0
  4 18  1  0
 18 19  1  0
 19 20  1  0
 20 21  1  0
 21 22  1  0
 16  8  1  0
 22 18  1  0
 15 10  1  0
  1 23  1  0
  1 24  1  0
  1 25  1  0
  2 26  1  0
  3 27  1  0
  3 28  1  0
  3 29  1  0
  4 30  1  0
  5 31  1  0
  5 32  1  0
  6 33  1  0
  7 34  1  0
  7 35  1  0
 11 36  1  0
 12 37  1  0
 13 38  1  0
 14 39  1  0
 17 40  1  0
 17 41  1  0
 17 42  1  0
 19 43  1  0
 19 44  1  0
 20 45  1  0
 20 46  1  0
 21 47  1  0
 21 48  1  0
 22 49  1  0
 22 50  1  0
M  END
>  <Energy>  (987) 
760.36002156462871

>  <compound_id>  (987) 
9273

>  <target_id>  (987) 
1

>  <reference_id>  (987) 
95

>  <inspiration_ids>  (987) 
[94, 95]

>  <energy_score>  (987) 
648.3445256667748

>  <distance_score>  (987) 
13.590371640105138

>  <path>  (987) 
/opt/xchem-fragalysis-2/maxwin/BulkDock/SCRATCH/511016/C9273-P95/C9273-P95.minimised.mol

>  <scratch_subdir>  (987) 
/opt/xchem-fragalysis-2/maxwin/BulkDock/SCRATCH/511016/C9273-P95

>  <fragmenstein_runtime>  (987) 
24.66572904586792

>  <fragmenstein_outcome>  (987) 
too moved

>  <fragmenstein_mode>  (987) 
expansion

>  <fragmenstein_error>  (987) 


$$$$
C9275-P94
     RDKit          3D

 46 49  0  0  0  0  0  0  0  0999 V2000
  -11.4995  -22.3749   19.7638 O   0  0  0  0  0  0  0  0  0  0  0  0
  -12.6778  -22.5705   19.8261 C   0  0  0  0  0  0  0  0  0  0  0  0
  -13.6556  -22.6993   18.7970 N   0  0  0  0  0  0  0  0  0  0  0  0
  -13.5180  -22.7296   17.3429 C   0  0  0  0  0  0  0  0  0  0  0  0
  -13.6478  -21.3421   16.6551 C   0  0  0  0  0  0  0  0  0  0  0  0
  -14.7021  -20.7595   16.6906 O   0  0  0  0  0  0  0  0  0  0  0  0
  -12.3704  -20.9313   16.1377 N   0  0  0  0  0  0  0  0  0  0  0  0
  -12.2354  -21.3366   14.6830 C   0  0  0  0  0  0  0  0  0  0  0  0
  -12.9308  -20.3914   13.7050 C   0  0  0  0  0  0  0  0  0  0  0  0
  -12.6826  -19.0962   14.3793 C   0  0  0  0  0  0  0  0  0  0  0  0
  -11.9153  -19.6138   15.5809 C   0  0  0  0  0  0  0  0  0  0  0  0
  -13.1759  -22.7913   21.2381 C   0  0  0  0  0  0  0  0  0  0  0  0
  -13.9546  -23.8927   21.6145 C   0  0  0  0  0  0  0  0  0  0  0  0
  -14.0290  -24.2990   22.9780 C   0  0  0  0  0  0  0  0  0  0  0  0
  -13.3277  -23.6123   23.9822 C   0  0  0  0  0  0  0  0  0  0  0  0
  -13.0750  -24.2127   25.2714 N   0  0  0  0  0  0  0  0  0  0  0  0
  -12.0572  -23.8726   26.1439 C   0  0  0  0  0  0  0  0  0  0  0  0
  -11.7337  -24.8285   26.9807 N   0  0  0  0  0  0  0  0  0  0  0  0
  -12.7878  -25.6772   26.8936 C   0  0  0  0  0  0  0  0  0  0  0  0
  -13.0796  -26.7640   27.7209 C   0  0  0  0  0  0  0  0  0  0  0  0
  -14.3367  -27.3764   27.6063 C   0  0  0  0  0  0  0  0  0  0  0  0
  -15.2204  -26.9976   26.5990 C   0  0  0  0  0  0  0  0  0  0  0  0
  -14.9014  -25.9716   25.7021 C   0  0  0  0  0  0  0  0  0  0  0  0
  -13.6774  -25.3094   25.8765 C   0  0  0  0  0  0  0  0  0  0  0  0
  -12.6704  -22.4318   23.6006 C   0  0  0  0  0  0  0  0  0  0  0  0
  -12.5798  -22.0395   22.2542 C   0  0  0  0  0  0  0  0  0  0  0  0
  -14.5718  -22.7769   19.2210 H   0  0  0  0  0  0  0  0  0  0  0  0
  -12.5422  -23.1708   17.1145 H   0  0  0  0  0  0  0  0  0  0  0  0
  -14.2975  -23.3852   16.9428 H   0  0  0  0  0  0  0  0  0  0  0  0
  -11.1695  -21.4827   14.4390 H   0  0  0  0  0  0  0  0  0  0  0  0
  -12.6818  -22.3349   14.5736 H   0  0  0  0  0  0  0  0  0  0  0  0
  -14.0033  -20.6044   13.6416 H   0  0  0  0  0  0  0  0  0  0  0  0
  -12.5034  -20.4565   12.7004 H   0  0  0  0  0  0  0  0  0  0  0  0
  -13.6215  -18.6162   14.6649 H   0  0  0  0  0  0  0  0  0  0  0  0
  -12.1004  -18.4027   13.7687 H   0  0  0  0  0  0  0  0  0  0  0  0
  -10.8258  -19.6376   15.4116 H   0  0  0  0  0  0  0  0  0  0  0  0
  -12.0481  -18.9059   16.4042 H   0  0  0  0  0  0  0  0  0  0  0  0
  -14.3884  -24.5405   20.8558 H   0  0  0  0  0  0  0  0  0  0  0  0
  -14.5183  -25.2490   23.1670 H   0  0  0  0  0  0  0  0  0  0  0  0
  -11.5791  -22.9170   26.1162 H   0  0  0  0  0  0  0  0  0  0  0  0
  -12.3615  -27.0666   28.4769 H   0  0  0  0  0  0  0  0  0  0  0  0
  -14.6028  -28.1946   28.2722 H   0  0  0  0  0  0  0  0  0  0  0  0
  -16.1721  -27.5166   26.4967 H   0  0  0  0  0  0  0  0  0  0  0  0
  -15.6289  -25.6627   24.9597 H   0  0  0  0  0  0  0  0  0  0  0  0
  -12.1354  -21.8174   24.3148 H   0  0  0  0  0  0  0  0  0  0  0  0
  -11.9342  -21.2019   21.9954 H   0  0  0  0  0  0  0  0  0  0  0  0
  1  2  2  0
  2  3  1  0
  3  4  1  0
  4  5  1  0
  5  6  2  0
  5  7  1  0
  7  8  1  0
  8  9  1  0
  9 10  1  0
 10 11  1  0
  2 12  1  0
 12 13  2  0
 13 14  1  0
 14 15  2  0
 15 16  1  0
 16 17  1  0
 17 18  2  0
 18 19  1  0
 19 20  2  0
 20 21  1  0
 21 22  2  0
 22 23  1  0
 23 24  2  0
 15 25  1  0
 25 26  2  0
 11  7  1  0
 26 12  1  0
 24 16  1  0
 24 19  1  0
  3 27  1  0
  4 28  1  0
  4 29  1  0
  8 30  1  0
  8 31  1  0
  9 32  1  0
  9 33  1  0
 10 34  1  0
 10 35  1  0
 11 36  1  0
 11 37  1  0
 13 38  1  0
 14 39  1  0
 17 40  1  0
 20 41  1  0
 21 42  1  0
 22 43  1  0
 23 44  1  0
 25 45  1  0
 26 46  1  0
M  END
>  <Energy>  (988) 
159.6175014405926

>  <compound_id>  (988) 
9275

>  <target_id>  (988) 
1

>  <reference_id>  (988) 
94

>  <inspiration_ids>  (988) 
[94, 95]

>  <energy_score>  (988) 
36.35913934539002

>  <distance_score>  (988) 
17.613720006213057

>  <path>  (988) 
/opt/xchem-fragalysis-2/maxwin/BulkDock/SCRATCH/511016/C9275-P94/C9275-P94.minimised.mol

>  <scratch_subdir>  (988) 
/opt/xchem-fragalysis-2/maxwin/BulkDock/SCRATCH/511016/C9275-P94

>  <fragmenstein_runtime>  (988) 
52.92517399787903

>  <fragmenstein_outcome>  (988) 
too moved

>  <fragmenstein_mode>  (988) 
expansion

>  <fragmenstein_error>  (988) 


$$$$
C9275-P95
     RDKit          3D

 46 49  0  0  0  0  0  0  0  0999 V2000
  -11.0375  -14.0272    7.2384 O   0  0  0  0  0  0  0  0  0  0  0  0
  -11.4442  -13.2646    8.0775 C   0  0  0  0  0  0  0  0  0  0  0  0
  -11.8237  -11.8192    7.9722 N   0  0  0  0  0  0  0  0  0  0  0  0
  -11.7095  -10.7434    6.6880 C   0  0  0  0  0  0  0  0  0  0  0  0
  -10.5245   -9.6641    6.8948 C   0  0  0  0  0  0  0  0  0  0  0  0
   -9.6037  -10.1761    7.4849 O   0  0  0  0  0  0  0  0  0  0  0  0
  -10.7517   -8.1315    6.4366 N   0  0  0  0  0  0  0  0  0  0  0  0
  -10.3207   -7.2504    4.8914 C   0  0  0  0  0  0  0  0  0  0  0  0
  -10.2121   -5.3931    5.0804 C   0  0  0  0  0  0  0  0  0  0  0  0
   -9.3570   -5.2255    6.2634 C   0  0  0  0  0  0  0  0  0  0  0  0
   -9.7438   -6.6141    6.7803 C   0  0  0  0  0  0  0  0  0  0  0  0
  -11.6348  -14.0720    9.5406 C   0  0  0  0  0  0  0  0  0  0  0  0
  -12.5325  -13.8688   10.6034 C   0  0  0  0  0  0  0  0  0  0  0  0
  -12.7188  -14.8482   11.7372 C   0  0  0  0  0  0  0  0  0  0  0  0
  -12.0186  -16.0872   11.8689 C   0  0  0  0  0  0  0  0  0  0  0  0
  -12.3552  -17.1211   12.9056 N   0  0  0  0  0  0  0  0  0  0  0  0
  -13.5584  -17.1165   13.6039 C   0  0  0  0  0  0  0  0  0  0  0  0
  -13.6865  -18.0781   14.4874 N   0  0  0  0  0  0  0  0  0  0  0  0
  -12.5218  -18.7690   14.4618 C   0  0  0  0  0  0  0  0  0  0  0  0
  -12.1137  -19.7915   15.3511 C   0  0  0  0  0  0  0  0  0  0  0  0
  -10.8316  -20.3148   15.2373 C   0  0  0  0  0  0  0  0  0  0  0  0
   -9.9941  -19.8402   14.2297 C   0  0  0  0  0  0  0  0  0  0  0  0
  -10.3953  -18.8317   13.3140 C   0  0  0  0  0  0  0  0  0  0  0  0
  -11.6820  -18.2711   13.4396 C   0  0  0  0  0  0  0  0  0  0  0  0
  -11.0810  -16.2639   10.8433 C   0  0  0  0  0  0  0  0  0  0  0  0
  -10.9172  -15.3004    9.7277 C   0  0  0  0  0  0  0  0  0  0  0  0
  -12.0449  -11.4664    8.8930 H   0  0  0  0  0  0  0  0  0  0  0  0
  -12.6780  -10.2412    6.6620 H   0  0  0  0  0  0  0  0  0  0  0  0
  -11.5122  -11.3568    5.8072 H   0  0  0  0  0  0  0  0  0  0  0  0
  -10.0793   -7.7581    3.9699 H   0  0  0  0  0  0  0  0  0  0  0  0
  -11.2519   -6.8750    4.4232 H   0  0  0  0  0  0  0  0  0  0  0  0
  -11.1805   -5.0295    5.2939 H   0  0  0  0  0  0  0  0  0  0  0  0
   -9.7918   -4.6636    4.3941 H   0  0  0  0  0  0  0  0  0  0  0  0
   -8.2732   -5.0800    6.1827 H   0  0  0  0  0  0  0  0  0  0  0  0
   -9.6669   -4.3463    6.8490 H   0  0  0  0  0  0  0  0  0  0  0  0
  -10.5644   -6.0725    6.7792 H   0  0  0  0  0  0  0  0  0  0  0  0
   -9.3446   -6.5868    7.7601 H   0  0  0  0  0  0  0  0  0  0  0  0
  -13.1758  -12.9903   10.5965 H   0  0  0  0  0  0  0  0  0  0  0  0
  -13.4676  -14.5575   12.4749 H   0  0  0  0  0  0  0  0  0  0  0  0
  -14.3307  -16.3904   13.3918 H   0  0  0  0  0  0  0  0  0  0  0  0
  -12.7884  -20.1278   16.1314 H   0  0  0  0  0  0  0  0  0  0  0  0
  -10.4894  -21.0834   15.9245 H   0  0  0  0  0  0  0  0  0  0  0  0
   -8.9871  -20.2479   14.1454 H   0  0  0  0  0  0  0  0  0  0  0  0
   -9.6846  -18.4561   12.5848 H   0  0  0  0  0  0  0  0  0  0  0  0
  -10.4860  -17.1738   10.7886 H   0  0  0  0  0  0  0  0  0  0  0  0
  -10.2009  -15.5853    8.9508 H   0  0  0  0  0  0  0  0  0  0  0  0
  1  2  2  0
  2  3  1  0
  3  4  1  0
  4  5  1  0
  5  6  2  0
  5  7  1  0
  7  8  1  0
  8  9  1  0
  9 10  1  0
 10 11  1  0
  2 12  1  0
 12 13  2  0
 13 14  1  0
 14 15  2  0
 15 16  1  0
 16 17  1  0
 17 18  2  0
 18 19  1  0
 19 20  2  0
 20 21  1  0
 21 22  2  0
 22 23  1  0
 23 24  2  0
 15 25  1  0
 25 26  2  0
 11  7  1  0
 26 12  1  0
 24 16  1  0
 24 19  1  0
  3 27  1  0
  4 28  1  0
  4 29  1  0
  8 30  1  0
  8 31  1  0
  9 32  1  0
  9 33  1  0
 10 34  1  0
 10 35  1  0
 11 36  1  0
 11 37  1  0
 13 38  1  0
 14 39  1  0
 17 40  1  0
 20 41  1  0
 21 42  1  0
 22 43  1  0
 23 44  1  0
 25 45  1  0
 26 46  1  0
M  END
>  <Energy>  (989) 
475.37364188077038

>  <compound_id>  (989) 
9275

>  <target_id>  (989) 
1

>  <reference_id>  (989) 
95

>  <inspiration_ids>  (989) 
[94, 95]

>  <energy_score>  (989) 
352.1152797855731

>  <distance_score>  (989) 
14.486861909920744

>  <path>  (989) 
/opt/xchem-fragalysis-2/maxwin/BulkDock/SCRATCH/511016/C9275-P95/C9275-P95.minimised.mol

>  <scratch_subdir>  (989) 
/opt/xchem-fragalysis-2/maxwin/BulkDock/SCRATCH/511016/C9275-P95

>  <fragmenstein_runtime>  (989) 
51.35605835914612

>  <fragmenstein_outcome>  (989) 
too moved

>  <fragmenstein_mode>  (989) 
expansion

>  <fragmenstein_error>  (989) 


$$$$
C9276-P94
     RDKit          3D

 50 53  0  0  0  0  0  0  0  0999 V2000
   -7.0969   -5.0479   16.0909 C   0  0  0  0  0  0  0  0  0  0  0  0
   -7.0526   -6.4816   16.5253 N   0  0  0  0  0  0  0  0  0  0  0  0
   -7.4948   -7.2883   14.9232 C   0  0  0  0  0  0  0  0  0  0  0  0
   -7.5477   -9.2808   14.7601 C   0  0  0  0  0  0  0  0  0  0  0  0
   -6.9674   -9.8040   15.7556 O   0  0  0  0  0  0  0  0  0  0  0  0
   -8.0898   -9.8977   13.5672 N   0  0  0  0  0  0  0  0  0  0  0  0
   -8.0330  -11.5982   12.9791 C   0  0  0  0  0  0  0  0  0  0  0  0
   -8.7690  -12.7668   13.4291 C   0  0  0  0  0  0  0  0  0  0  0  0
   -9.4825  -11.7456   14.0619 C   0  0  0  0  0  0  0  0  0  0  0  0
   -9.3998  -10.2336   13.7451 C   0  0  0  0  0  0  0  0  0  0  0  0
   -7.6929   -6.3809   18.2896 C   0  0  0  0  0  0  0  0  0  0  0  0
   -8.5873   -7.1360   19.8176 C   0  0  0  0  0  0  0  0  0  0  0  0
   -8.1492   -7.0402   21.5538 C   0  0  0  0  0  0  0  0  0  0  0  0
   -8.9476   -8.0279   22.9659 C   0  0  0  0  0  0  0  0  0  0  0  0
  -10.6645   -8.7747   22.9738 C   0  0  0  0  0  0  0  0  0  0  0  0
  -11.0227  -10.3992   23.7507 N   0  0  0  0  0  0  0  0  0  0  0  0
  -10.0662  -11.2588   23.8650 C   0  0  0  0  0  0  0  0  0  0  0  0
   -9.8131  -11.5819   25.1539 N   0  0  0  0  0  0  0  0  0  0  0  0
  -10.8394  -11.6228   25.9373 C   0  0  0  0  0  0  0  0  0  0  0  0
  -10.9729  -12.2739   27.1825 C   0  0  0  0  0  0  0  0  0  0  0  0
  -12.2361  -12.6390   27.6069 C   0  0  0  0  0  0  0  0  0  0  0  0
  -13.2925  -12.3564   26.7708 C   0  0  0  0  0  0  0  0  0  0  0  0
  -13.0917  -11.6492   25.5537 C   0  0  0  0  0  0  0  0  0  0  0  0
  -11.8073  -11.0869   25.1402 C   0  0  0  0  0  0  0  0  0  0  0  0
  -11.2218   -8.6026   21.1893 C   0  0  0  0  0  0  0  0  0  0  0  0
  -10.0660   -7.9185   19.7127 C   0  0  0  0  0  0  0  0  0  0  0  0
   -8.1311   -4.7248   15.9401 H   0  0  0  0  0  0  0  0  0  0  0  0
   -6.6330   -4.4112   16.8503 H   0  0  0  0  0  0  0  0  0  0  0  0
   -6.5269   -4.8995   15.1688 H   0  0  0  0  0  0  0  0  0  0  0  0
   -8.4422   -6.7798   14.7438 H   0  0  0  0  0  0  0  0  0  0  0  0
   -6.7769   -6.9082   14.1898 H   0  0  0  0  0  0  0  0  0  0  0  0
   -8.5688  -11.5442   12.0137 H   0  0  0  0  0  0  0  0  0  0  0  0
   -7.0051  -11.9501   12.8462 H   0  0  0  0  0  0  0  0  0  0  0  0
   -8.6652  -13.5745   14.1394 H   0  0  0  0  0  0  0  0  0  0  0  0
   -9.2925  -13.2946   12.6045 H   0  0  0  0  0  0  0  0  0  0  0  0
  -10.0822  -11.9599   13.1491 H   0  0  0  0  0  0  0  0  0  0  0  0
   -9.9306  -12.1102   14.9733 H   0  0  0  0  0  0  0  0  0  0  0  0
   -9.8882   -9.5885   14.4597 H   0  0  0  0  0  0  0  0  0  0  0  0
   -9.8755   -9.9851   12.7870 H   0  0  0  0  0  0  0  0  0  0  0  0
   -7.2338   -7.3760   18.1850 H   0  0  0  0  0  0  0  0  0  0  0  0
   -6.9902   -5.6683   18.7393 H   0  0  0  0  0  0  0  0  0  0  0  0
   -7.4799   -6.2324   21.8707 H   0  0  0  0  0  0  0  0  0  0  0  0
   -8.7821   -7.2013   23.7230 H   0  0  0  0  0  0  0  0  0  0  0  0
   -9.3927  -11.2771   23.0330 H   0  0  0  0  0  0  0  0  0  0  0  0
  -10.0875  -12.6017   27.7159 H   0  0  0  0  0  0  0  0  0  0  0  0
  -12.3791  -13.1903   28.5301 H   0  0  0  0  0  0  0  0  0  0  0  0
  -14.2930  -12.7021   27.0231 H   0  0  0  0  0  0  0  0  0  0  0  0
  -13.9832  -11.5931   24.9378 H   0  0  0  0  0  0  0  0  0  0  0  0
   -9.9532   -8.8484   21.5019 H   0  0  0  0  0  0  0  0  0  0  0  0
  -10.3282   -7.4615   18.7697 H   0  0  0  0  0  0  0  0  0  0  0  0
  1  2  1  0
  2  3  1  0
  3  4  1  0
  4  5  2  0
  4  6  1  0
  6  7  1  0
  7  8  1  0
  8  9  1  0
  9 10  1  0
  2 11  1  0
 11 12  1  0
 12 13  2  0
 13 14  1  0
 14 15  2  0
 15 16  1  0
 16 17  1  0
 17 18  2  0
 18 19  1  0
 19 20  2  0
 20 21  1  0
 21 22  2  0
 22 23  1  0
 23 24  2  0
 15 25  1  0
 25 26  2  0
 10  6  1  0
 26 12  1  0
 24 16  1  0
 24 19  1  0
  1 27  1  0
  1 28  1  0
  1 29  1  0
  3 30  1  0
  3 31  1  0
  7 32  1  0
  7 33  1  0
  8 34  1  0
  8 35  1  0
  9 36  1  0
  9 37  1  0
 10 38  1  0
 10 39  1  0
 11 40  1  0
 11 41  1  0
 13 42  1  0
 14 43  1  0
 17 44  1  0
 20 45  1  0
 21 46  1  0
 22 47  1  0
 23 48  1  0
 25 49  1  0
 26 50  1  0
M  END
>  <Energy>  (990) 
1209.8377404066221

>  <compound_id>  (990) 
9276

>  <target_id>  (990) 
1

>  <reference_id>  (990) 
94

>  <inspiration_ids>  (990) 
[94, 95]

>  <energy_score>  (990) 
1053.9040086674868

>  <distance_score>  (990) 
13.63897161786968

>  <path>  (990) 
/opt/xchem-fragalysis-2/maxwin/BulkDock/SCRATCH/511016/C9276-P94/C9276-P94.minimised.mol

>  <scratch_subdir>  (990) 
/opt/xchem-fragalysis-2/maxwin/BulkDock/SCRATCH/511016/C9276-P94

>  <fragmenstein_runtime>  (990) 
33.30039358139038

>  <fragmenstein_outcome>  (990) 
too moved

>  <fragmenstein_mode>  (990) 
expansion

>  <fragmenstein_error>  (990) 


$$$$
C9276-P95
     RDKit          3D

 50 53  0  0  0  0  0  0  0  0999 V2000
  -14.4928   -7.8070   12.6680 C   0  0  0  0  0  0  0  0  0  0  0  0
  -13.0813   -7.6887   13.2604 N   0  0  0  0  0  0  0  0  0  0  0  0
  -12.5282   -6.4110   11.7290 C   0  0  0  0  0  0  0  0  0  0  0  0
  -10.6916   -5.3354   11.0617 C   0  0  0  0  0  0  0  0  0  0  0  0
  -10.0223   -4.9593   12.0235 O   0  0  0  0  0  0  0  0  0  0  0  0
   -9.8420   -5.0277    9.3428 N   0  0  0  0  0  0  0  0  0  0  0  0
   -8.3327   -4.4684    8.9304 C   0  0  0  0  0  0  0  0  0  0  0  0
   -7.8824   -3.4768    7.8124 C   0  0  0  0  0  0  0  0  0  0  0  0
   -9.0547   -3.5942    6.9602 C   0  0  0  0  0  0  0  0  0  0  0  0
   -9.9371   -3.5356    8.1724 C   0  0  0  0  0  0  0  0  0  0  0  0
  -13.2086   -9.4532   14.3300 C   0  0  0  0  0  0  0  0  0  0  0  0
  -13.4574  -10.8300   15.8971 C   0  0  0  0  0  0  0  0  0  0  0  0
  -13.8649  -11.6031   17.4700 C   0  0  0  0  0  0  0  0  0  0  0  0
  -14.3358  -13.4483   18.1787 C   0  0  0  0  0  0  0  0  0  0  0  0
  -13.7000  -15.1742   18.4311 C   0  0  0  0  0  0  0  0  0  0  0  0
  -12.2559  -16.2737   19.5630 N   0  0  0  0  0  0  0  0  0  0  0  0
  -10.2246  -16.5138   19.9493 C   0  0  0  0  0  0  0  0  0  0  0  0
   -9.3961  -17.8730   21.1778 N   0  0  0  0  0  0  0  0  0  0  0  0
  -11.1319  -19.2616   21.4607 C   0  0  0  0  0  0  0  0  0  0  0  0
  -11.4839  -20.3722   22.2517 C   0  0  0  0  0  0  0  0  0  0  0  0
  -12.8576  -20.6288   22.3321 C   0  0  0  0  0  0  0  0  0  0  0  0
  -13.8876  -19.8478   21.7102 C   0  0  0  0  0  0  0  0  0  0  0  0
  -13.7654  -18.6894   20.8637 C   0  0  0  0  0  0  0  0  0  0  0  0
  -12.4986  -18.1415   20.4353 C   0  0  0  0  0  0  0  0  0  0  0  0
  -14.1052  -14.3381   16.7449 C   0  0  0  0  0  0  0  0  0  0  0  0
  -13.7296  -12.5401   15.8846 C   0  0  0  0  0  0  0  0  0  0  0  0
  -14.4557   -8.3477   11.7189 H   0  0  0  0  0  0  0  0  0  0  0  0
  -15.1996   -8.3341   13.3124 H   0  0  0  0  0  0  0  0  0  0  0  0
  -14.9476   -6.8228   12.5237 H   0  0  0  0  0  0  0  0  0  0  0  0
  -13.1347   -6.7906   10.8761 H   0  0  0  0  0  0  0  0  0  0  0  0
  -13.3402   -5.7698   12.1017 H   0  0  0  0  0  0  0  0  0  0  0  0
   -8.1049   -5.2650    8.1939 H   0  0  0  0  0  0  0  0  0  0  0  0
   -7.5970   -4.8217    9.6518 H   0  0  0  0  0  0  0  0  0  0  0  0
   -6.9733   -3.7912    7.2845 H   0  0  0  0  0  0  0  0  0  0  0  0
   -7.7215   -2.4537    8.1785 H   0  0  0  0  0  0  0  0  0  0  0  0
   -9.1816   -2.7475    6.2814 H   0  0  0  0  0  0  0  0  0  0  0  0
   -9.1437   -4.5352    6.4129 H   0  0  0  0  0  0  0  0  0  0  0  0
   -9.7256   -2.5795    8.7222 H   0  0  0  0  0  0  0  0  0  0  0  0
  -10.9303   -3.4920    7.6633 H   0  0  0  0  0  0  0  0  0  0  0  0
  -14.1285   -9.0665   14.7079 H   0  0  0  0  0  0  0  0  0  0  0  0
  -12.1751   -9.3144   14.4094 H   0  0  0  0  0  0  0  0  0  0  0  0
  -14.2796  -10.8038   18.1384 H   0  0  0  0  0  0  0  0  0  0  0  0
  -15.4125  -13.6141   18.2235 H   0  0  0  0  0  0  0  0  0  0  0  0
   -9.6553  -15.7486   19.3691 H   0  0  0  0  0  0  0  0  0  0  0  0
  -10.7564  -20.9466   22.8053 H   0  0  0  0  0  0  0  0  0  0  0  0
  -13.1838  -21.4611   22.9629 H   0  0  0  0  0  0  0  0  0  0  0  0
  -14.9145  -20.1622   21.9309 H   0  0  0  0  0  0  0  0  0  0  0  0
  -14.6758  -18.1875   20.5422 H   0  0  0  0  0  0  0  0  0  0  0  0
  -13.5952  -14.5983   15.8021 H   0  0  0  0  0  0  0  0  0  0  0  0
  -12.9276  -13.1504   15.1931 H   0  0  0  0  0  0  0  0  0  0  0  0
  1  2  1  0
  2  3  1  0
  3  4  1  0
  4  5  2  0
  4  6  1  0
  6  7  1  0
  7  8  1  0
  8  9  1  0
  9 10  1  0
  2 11  1  0
 11 12  1  0
 12 13  2  0
 13 14  1  0
 14 15  2  0
 15 16  1  0
 16 17  1  0
 17 18  2  0
 18 19  1  0
 19 20  2  0
 20 21  1  0
 21 22  2  0
 22 23  1  0
 23 24  2  0
 15 25  1  0
 25 26  2  0
 10  6  1  0
 26 12  1  0
 24 16  1  0
 24 19  1  0
  1 27  1  0
  1 28  1  0
  1 29  1  0
  3 30  1  0
  3 31  1  0
  7 32  1  0
  7 33  1  0
  8 34  1  0
  8 35  1  0
  9 36  1  0
  9 37  1  0
 10 38  1  0
 10 39  1  0
 11 40  1  0
 11 41  1  0
 13 42  1  0
 14 43  1  0
 17 44  1  0
 20 45  1  0
 21 46  1  0
 22 47  1  0
 23 48  1  0
 25 49  1  0
 26 50  1  0
M  END
>  <Energy>  (991) 
3178.1287963350142

>  <compound_id>  (991) 
9276

>  <target_id>  (991) 
1

>  <reference_id>  (991) 
95

>  <inspiration_ids>  (991) 
[94, 95]

>  <energy_score>  (991) 
3022.1950645958314

>  <distance_score>  (991) 
10.552786439381682

>  <path>  (991) 
/opt/xchem-fragalysis-2/maxwin/BulkDock/SCRATCH/511016/C9276-P95/C9276-P95.minimised.mol

>  <scratch_subdir>  (991) 
/opt/xchem-fragalysis-2/maxwin/BulkDock/SCRATCH/511016/C9276-P95

>  <fragmenstein_runtime>  (991) 
29.913991451263428

>  <fragmenstein_outcome>  (991) 
too moved

>  <fragmenstein_mode>  (991) 
expansion

>  <fragmenstein_error>  (991) 


$$$$
C9278-P94
     RDKit          3D

 56 59  0  0  0  0  0  0  0  0999 V2000
   -9.3319   -9.2692   14.4551 C   0  0  0  0  0  0  0  0  0  0  0  0
  -10.5536  -10.5093   14.8717 C   0  0  0  0  0  0  0  0  0  0  0  0
   -9.3231  -11.5568   14.1628 C   0  0  0  0  0  0  0  0  0  0  0  0
  -11.1085  -11.7627   16.5428 C   0  0  0  0  0  0  0  0  0  0  0  0
  -10.3876  -12.3446   18.2835 N   0  0  0  0  0  0  0  0  0  0  0  0
  -10.3625  -13.6843   19.7849 C   0  0  0  0  0  0  0  0  0  0  0  0
  -11.1631  -13.9941   21.8274 C   0  0  0  0  0  0  0  0  0  0  0  0
  -12.0948  -14.7857   23.3080 C   0  0  0  0  0  0  0  0  0  0  0  0
  -12.6313  -15.0182   25.0933 C   0  0  0  0  0  0  0  0  0  0  0  0
  -11.6403  -15.3521   25.8319 C   0  0  0  0  0  0  0  0  0  0  0  0
  -10.8840  -16.0205   27.3867 N   0  0  0  0  0  0  0  0  0  0  0  0
   -9.5257  -16.4671   27.4205 C   0  0  0  0  0  0  0  0  0  0  0  0
   -9.2626  -17.5953   28.1161 N   0  0  0  0  0  0  0  0  0  0  0  0
  -10.4511  -18.1527   28.8035 C   0  0  0  0  0  0  0  0  0  0  0  0
  -10.6070  -20.1022   29.4020 C   0  0  0  0  0  0  0  0  0  0  0  0
  -11.7124  -20.8806   29.4950 C   0  0  0  0  0  0  0  0  0  0  0  0
  -12.5241  -19.8915   29.0651 C   0  0  0  0  0  0  0  0  0  0  0  0
  -12.2853  -18.0861   28.7746 C   0  0  0  0  0  0  0  0  0  0  0  0
  -11.2943  -17.0952   28.6431 C   0  0  0  0  0  0  0  0  0  0  0  0
  -11.6422  -16.3945   24.3156 C   0  0  0  0  0  0  0  0  0  0  0  0
  -11.4755  -15.5923   22.6282 C   0  0  0  0  0  0  0  0  0  0  0  0
  -11.6148   -9.2969   13.7014 C   0  0  0  0  0  0  0  0  0  0  0  0
  -11.3511   -9.5227   12.5256 O   0  0  0  0  0  0  0  0  0  0  0  0
  -12.6911   -8.3235   14.2616 N   0  0  0  0  0  0  0  0  0  0  0  0
  -12.0721   -6.8548   14.4972 C   0  0  0  0  0  0  0  0  0  0  0  0
  -13.0215   -5.7611   14.9588 C   0  0  0  0  0  0  0  0  0  0  0  0
  -14.1789   -6.1187   14.0850 C   0  0  0  0  0  0  0  0  0  0  0  0
  -13.7611   -7.4938   13.5462 C   0  0  0  0  0  0  0  0  0  0  0  0
   -9.6397   -8.2582   14.6987 H   0  0  0  0  0  0  0  0  0  0  0  0
   -9.2157   -9.3141   13.3660 H   0  0  0  0  0  0  0  0  0  0  0  0
   -8.2810   -9.3698   14.7281 H   0  0  0  0  0  0  0  0  0  0  0  0
   -9.4639  -12.6058   14.4397 H   0  0  0  0  0  0  0  0  0  0  0  0
   -9.3030  -11.4488   13.0699 H   0  0  0  0  0  0  0  0  0  0  0  0
   -8.3112  -11.3666   14.5360 H   0  0  0  0  0  0  0  0  0  0  0  0
  -11.0100  -12.7171   16.0588 H   0  0  0  0  0  0  0  0  0  0  0  0
  -12.1504  -11.4808   16.7232 H   0  0  0  0  0  0  0  0  0  0  0  0
  -10.5166  -11.4673   18.7842 H   0  0  0  0  0  0  0  0  0  0  0  0
  -10.2661  -14.6279   19.1894 H   0  0  0  0  0  0  0  0  0  0  0  0
   -9.2567  -13.4768   19.9612 H   0  0  0  0  0  0  0  0  0  0  0  0
  -13.1659  -15.6067   23.0276 H   0  0  0  0  0  0  0  0  0  0  0  0
  -13.6828  -15.1864   25.3297 H   0  0  0  0  0  0  0  0  0  0  0  0
   -8.8047  -15.9465   26.8055 H   0  0  0  0  0  0  0  0  0  0  0  0
   -9.9932  -20.8222   28.8908 H   0  0  0  0  0  0  0  0  0  0  0  0
  -11.8700  -21.9290   29.6133 H   0  0  0  0  0  0  0  0  0  0  0  0
  -13.5445  -20.1679   29.1136 H   0  0  0  0  0  0  0  0  0  0  0  0
  -13.1264  -17.5502   28.5019 H   0  0  0  0  0  0  0  0  0  0  0  0
  -10.8467  -17.1726   24.3964 H   0  0  0  0  0  0  0  0  0  0  0  0
  -12.0801  -16.1748   21.8531 H   0  0  0  0  0  0  0  0  0  0  0  0
  -11.1547   -6.9099   15.0810 H   0  0  0  0  0  0  0  0  0  0  0  0
  -11.7542   -6.4096   13.5817 H   0  0  0  0  0  0  0  0  0  0  0  0
  -13.2744   -5.7377   16.0208 H   0  0  0  0  0  0  0  0  0  0  0  0
  -12.5949   -4.7721   14.8281 H   0  0  0  0  0  0  0  0  0  0  0  0
  -14.3526   -5.4194   13.2647 H   0  0  0  0  0  0  0  0  0  0  0  0
  -15.1190   -6.1638   14.6466 H   0  0  0  0  0  0  0  0  0  0  0  0
  -14.6427   -8.1483   13.5253 H   0  0  0  0  0  0  0  0  0  0  0  0
  -13.4799   -7.4120   12.4930 H   0  0  0  0  0  0  0  0  0  0  0  0
  1  2  1  0
  2  3  1  0
  2  4  1  0
  4  5  1  0
  5  6  1  0
  6  7  1  0
  7  8  2  0
  8  9  1  0
  9 10  2  0
 10 11  1  0
 11 12  1  0
 12 13  2  0
 13 14  1  0
 14 15  2  0
 15 16  1  0
 16 17  2  0
 17 18  1  0
 18 19  2  0
 10 20  1  0
 20 21  2  0
  2 22  1  0
 22 23  2  0
 22 24  1  0
 24 25  1  0
 25 26  1  0
 26 27  1  0
 27 28  1  0
 21  7  1  0
 28 24  1  0
 19 11  1  0
 19 14  1  0
  1 29  1  0
  1 30  1  0
  1 31  1  0
  3 32  1  0
  3 33  1  0
  3 34  1  0
  4 35  1  0
  4 36  1  0
  5 37  1  0
  6 38  1  0
  6 39  1  0
  8 40  1  0
  9 41  1  0
 12 42  1  0
 15 43  1  0
 16 44  1  0
 17 45  1  0
 18 46  1  0
 20 47  1  0
 21 48  1  0
 25 49  1  0
 25 50  1  0
 26 51  1  0
 26 52  1  0
 27 53  1  0
 27 54  1  0
 28 55  1  0
 28 56  1  0
M  END
>  <Energy>  (992) 
2062.251859341588

>  <compound_id>  (992) 
9278

>  <target_id>  (992) 
1

>  <reference_id>  (992) 
94

>  <inspiration_ids>  (992) 
[94, 95]

>  <energy_score>  (992) 
1935.5422031967564

>  <distance_score>  (992) 
10.936072817129139

>  <path>  (992) 
/opt/xchem-fragalysis-2/maxwin/BulkDock/SCRATCH/511016/C9278-P94/C9278-P94.minimised.mol

>  <scratch_subdir>  (992) 
/opt/xchem-fragalysis-2/maxwin/BulkDock/SCRATCH/511016/C9278-P94

>  <fragmenstein_runtime>  (992) 
42.704749584198

>  <fragmenstein_outcome>  (992) 
too moved

>  <fragmenstein_mode>  (992) 
expansion

>  <fragmenstein_error>  (992) 


$$$$
C9278-P95
     RDKit          3D

 56 59  0  0  0  0  0  0  0  0999 V2000
   -9.3455   -5.6189   15.0329 C   0  0  0  0  0  0  0  0  0  0  0  0
  -10.2298   -6.4671   14.0681 C   0  0  0  0  0  0  0  0  0  0  0  0
  -11.7264   -6.1655   14.5645 C   0  0  0  0  0  0  0  0  0  0  0  0
  -10.2053   -8.6682   14.6798 C   0  0  0  0  0  0  0  0  0  0  0  0
  -10.8513  -10.5646   15.5641 N   0  0  0  0  0  0  0  0  0  0  0  0
  -10.8082  -11.7180   17.4859 C   0  0  0  0  0  0  0  0  0  0  0  0
  -10.2780  -13.1570   19.1182 C   0  0  0  0  0  0  0  0  0  0  0  0
  -10.1517  -13.1367   21.1366 C   0  0  0  0  0  0  0  0  0  0  0  0
  -11.2650  -13.6954   22.7154 C   0  0  0  0  0  0  0  0  0  0  0  0
  -12.1507  -15.0203   23.4863 C   0  0  0  0  0  0  0  0  0  0  0  0
  -12.5605  -14.7136   25.2975 N   0  0  0  0  0  0  0  0  0  0  0  0
  -12.0103  -13.6309   26.1794 C   0  0  0  0  0  0  0  0  0  0  0  0
  -11.8705  -13.9940   27.4271 N   0  0  0  0  0  0  0  0  0  0  0  0
  -13.0184  -14.6547   27.5892 C   0  0  0  0  0  0  0  0  0  0  0  0
  -13.6814  -14.8795   28.8100 C   0  0  0  0  0  0  0  0  0  0  0  0
  -14.9761  -15.3800   28.7933 C   0  0  0  0  0  0  0  0  0  0  0  0
  -15.5178  -15.8296   27.6100 C   0  0  0  0  0  0  0  0  0  0  0  0
  -14.8286  -15.6418   26.4041 C   0  0  0  0  0  0  0  0  0  0  0  0
  -13.5980  -14.9802   26.3232 C   0  0  0  0  0  0  0  0  0  0  0  0
  -11.4051  -14.8102   22.3284 C   0  0  0  0  0  0  0  0  0  0  0  0
  -11.1816  -13.4990   20.8171 C   0  0  0  0  0  0  0  0  0  0  0  0
  -10.2119   -5.5072   12.0096 C   0  0  0  0  0  0  0  0  0  0  0  0
  -11.1824   -5.7339   11.3679 O   0  0  0  0  0  0  0  0  0  0  0  0
   -9.1776   -4.5480   11.1061 N   0  0  0  0  0  0  0  0  0  0  0  0
   -7.7579   -5.0420    9.8883 C   0  0  0  0  0  0  0  0  0  0  0  0
   -7.8158   -4.7463    8.2422 C   0  0  0  0  0  0  0  0  0  0  0  0
   -9.0326   -4.0311    7.9474 C   0  0  0  0  0  0  0  0  0  0  0  0
   -9.3142   -3.6658    9.3684 C   0  0  0  0  0  0  0  0  0  0  0  0
   -9.3054   -4.5810   14.6869 H   0  0  0  0  0  0  0  0  0  0  0  0
   -8.3187   -5.9870   15.1161 H   0  0  0  0  0  0  0  0  0  0  0  0
   -9.7479   -5.6295   16.0518 H   0  0  0  0  0  0  0  0  0  0  0  0
  -12.4972   -6.2110   13.7952 H   0  0  0  0  0  0  0  0  0  0  0  0
  -12.0343   -7.0132   15.1335 H   0  0  0  0  0  0  0  0  0  0  0  0
  -11.8237   -5.2425   15.1401 H   0  0  0  0  0  0  0  0  0  0  0  0
   -9.1151   -8.8481   14.7289 H   0  0  0  0  0  0  0  0  0  0  0  0
  -10.4232   -9.2218   13.7416 H   0  0  0  0  0  0  0  0  0  0  0  0
  -10.2795  -11.1657   14.9215 H   0  0  0  0  0  0  0  0  0  0  0  0
  -11.0414  -12.5135   16.8145 H   0  0  0  0  0  0  0  0  0  0  0  0
  -11.8027  -11.4978   17.8740 H   0  0  0  0  0  0  0  0  0  0  0  0
   -9.5212  -12.3856   21.6169 H   0  0  0  0  0  0  0  0  0  0  0  0
  -11.3603  -12.6318   23.3415 H   0  0  0  0  0  0  0  0  0  0  0  0
  -11.6506  -12.6927   25.7626 H   0  0  0  0  0  0  0  0  0  0  0  0
  -13.2122  -14.5765   29.7399 H   0  0  0  0  0  0  0  0  0  0  0  0
  -15.5202  -15.4918   29.7220 H   0  0  0  0  0  0  0  0  0  0  0  0
  -16.4559  -16.3781   27.6227 H   0  0  0  0  0  0  0  0  0  0  0  0
  -15.0800  -16.2663   25.5588 H   0  0  0  0  0  0  0  0  0  0  0  0
  -11.8119  -15.7366   21.7503 H   0  0  0  0  0  0  0  0  0  0  0  0
  -11.9528  -12.8617   21.0846 H   0  0  0  0  0  0  0  0  0  0  0  0
   -7.0537   -4.6563   10.5726 H   0  0  0  0  0  0  0  0  0  0  0  0
   -7.0701   -5.9237    9.7646 H   0  0  0  0  0  0  0  0  0  0  0  0
   -7.9136   -5.6447    7.6506 H   0  0  0  0  0  0  0  0  0  0  0  0
   -6.9420   -4.2578    7.8035 H   0  0  0  0  0  0  0  0  0  0  0  0
   -9.6713   -4.4986    7.2122 H   0  0  0  0  0  0  0  0  0  0  0  0
   -8.7962   -3.1127    7.3785 H   0  0  0  0  0  0  0  0  0  0  0  0
   -9.6990   -2.6155    9.5835 H   0  0  0  0  0  0  0  0  0  0  0  0
   -8.4086   -2.9896    9.2038 H   0  0  0  0  0  0  0  0  0  0  0  0
  1  2  1  0
  2  3  1  0
  2  4  1  0
  4  5  1  0
  5  6  1  0
  6  7  1  0
  7  8  2  0
  8  9  1  0
  9 10  2  0
 10 11  1  0
 11 12  1  0
 12 13  2  0
 13 14  1  0
 14 15  2  0
 15 16  1  0
 16 17  2  0
 17 18  1  0
 18 19  2  0
 10 20  1  0
 20 21  2  0
  2 22  1  0
 22 23  2  0
 22 24  1  0
 24 25  1  0
 25 26  1  0
 26 27  1  0
 27 28  1  0
 21  7  1  0
 28 24  1  0
 19 11  1  0
 19 14  1  0
  1 29  1  0
  1 30  1  0
  1 31  1  0
  3 32  1  0
  3 33  1  0
  3 34  1  0
  4 35  1  0
  4 36  1  0
  5 37  1  0
  6 38  1  0
  6 39  1  0
  8 40  1  0
  9 41  1  0
 12 42  1  0
 15 43  1  0
 16 44  1  0
 17 45  1  0
 18 46  1  0
 20 47  1  0
 21 48  1  0
 25 49  1  0
 25 50  1  0
 26 51  1  0
 26 52  1  0
 27 53  1  0
 27 54  1  0
 28 55  1  0
 28 56  1  0
M  END
>  <Energy>  (993) 
2715.4317614925899

>  <compound_id>  (993) 
9278

>  <target_id>  (993) 
1

>  <reference_id>  (993) 
95

>  <inspiration_ids>  (993) 
[94, 95]

>  <energy_score>  (993) 
2588.72210534779

>  <distance_score>  (993) 
10.315564737906147

>  <path>  (993) 
/opt/xchem-fragalysis-2/maxwin/BulkDock/SCRATCH/511016/C9278-P95/C9278-P95.minimised.mol

>  <scratch_subdir>  (993) 
/opt/xchem-fragalysis-2/maxwin/BulkDock/SCRATCH/511016/C9278-P95

>  <fragmenstein_runtime>  (993) 
38.320980072021484

>  <fragmenstein_outcome>  (993) 
too moved

>  <fragmenstein_mode>  (993) 
expansion

>  <fragmenstein_error>  (993) 


$$$$
C9279-P94
     RDKit          3D

 44 47  0  0  0  0  0  0  0  0999 V2000
   -4.4371  -15.9332   15.8348 O   0  0  0  0  0  0  0  0  0  0  0  0
   -5.3057  -16.6847   15.4794 C   0  0  0  0  0  0  0  0  0  0  0  0
   -6.0471  -16.4577   14.0753 C   0  0  0  0  0  0  0  0  0  0  0  0
   -6.0462  -15.0541   13.5394 N   0  0  0  0  0  0  0  0  0  0  0  0
   -7.0555  -14.8219   12.4922 C   0  0  0  0  0  0  0  0  0  0  0  0
   -6.6641  -13.4913   11.8550 C   0  0  0  0  0  0  0  0  0  0  0  0
   -5.1598  -13.4000   12.0664 C   0  0  0  0  0  0  0  0  0  0  0  0
   -4.7885  -14.6323   12.9051 C   0  0  0  0  0  0  0  0  0  0  0  0
   -5.8692  -17.8915   16.1384 N   0  0  0  0  0  0  0  0  0  0  0  0
   -5.6154  -18.4589   17.4215 C   0  0  0  0  0  0  0  0  0  0  0  0
   -6.4469  -19.4774   17.9010 C   0  0  0  0  0  0  0  0  0  0  0  0
   -6.4036  -19.9388   19.2569 C   0  0  0  0  0  0  0  0  0  0  0  0
   -5.5084  -19.4034   20.1843 C   0  0  0  0  0  0  0  0  0  0  0  0
   -5.4411  -19.8230   21.5717 N   0  0  0  0  0  0  0  0  0  0  0  0
   -4.6093  -19.2882   22.5443 C   0  0  0  0  0  0  0  0  0  0  0  0
   -4.4157  -20.0913   23.5681 N   0  0  0  0  0  0  0  0  0  0  0  0
   -5.2524  -21.1371   23.3314 C   0  0  0  0  0  0  0  0  0  0  0  0
   -5.3939  -22.3171   24.0681 C   0  0  0  0  0  0  0  0  0  0  0  0
   -6.4294  -23.1720   23.7143 C   0  0  0  0  0  0  0  0  0  0  0  0
   -7.3295  -22.8342   22.7096 C   0  0  0  0  0  0  0  0  0  0  0  0
   -7.1463  -21.7134   21.9176 C   0  0  0  0  0  0  0  0  0  0  0  0
   -6.0533  -20.8998   22.2073 C   0  0  0  0  0  0  0  0  0  0  0  0
   -4.5805  -18.4836   19.6538 C   0  0  0  0  0  0  0  0  0  0  0  0
   -4.6268  -18.0298   18.2967 C   0  0  0  0  0  0  0  0  0  0  0  0
   -7.0954  -16.7390   14.2324 H   0  0  0  0  0  0  0  0  0  0  0  0
   -5.6142  -17.1550   13.3488 H   0  0  0  0  0  0  0  0  0  0  0  0
   -8.0674  -14.7817   12.9081 H   0  0  0  0  0  0  0  0  0  0  0  0
   -7.0227  -15.6173   11.7366 H   0  0  0  0  0  0  0  0  0  0  0  0
   -7.1666  -12.6555   12.3538 H   0  0  0  0  0  0  0  0  0  0  0  0
   -6.9306  -13.4582   10.7940 H   0  0  0  0  0  0  0  0  0  0  0  0
   -4.6205  -13.4006   11.1135 H   0  0  0  0  0  0  0  0  0  0  0  0
   -4.9069  -12.4730   12.5923 H   0  0  0  0  0  0  0  0  0  0  0  0
   -4.0151  -14.3920   13.6407 H   0  0  0  0  0  0  0  0  0  0  0  0
   -4.4007  -15.4158   12.2419 H   0  0  0  0  0  0  0  0  0  0  0  0
   -6.6485  -18.2348   15.5925 H   0  0  0  0  0  0  0  0  0  0  0  0
   -7.2054  -19.9081   17.2496 H   0  0  0  0  0  0  0  0  0  0  0  0
   -7.1235  -20.7019   19.5115 H   0  0  0  0  0  0  0  0  0  0  0  0
   -4.1357  -18.3238   22.4246 H   0  0  0  0  0  0  0  0  0  0  0  0
   -4.7397  -22.5316   24.9042 H   0  0  0  0  0  0  0  0  0  0  0  0
   -6.5632  -24.0779   24.2760 H   0  0  0  0  0  0  0  0  0  0  0  0
   -8.2164  -23.4215   22.5249 H   0  0  0  0  0  0  0  0  0  0  0  0
   -7.8650  -21.4946   21.1408 H   0  0  0  0  0  0  0  0  0  0  0  0
   -3.7835  -18.0722   20.2697 H   0  0  0  0  0  0  0  0  0  0  0  0
   -3.8975  -17.2917   17.9713 H   0  0  0  0  0  0  0  0  0  0  0  0
  1  2  2  0
  2  3  1  0
  3  4  1  0
  4  5  1  0
  5  6  1  0
  6  7  1  0
  7  8  1  0
  2  9  1  0
  9 10  1  0
 10 11  2  0
 11 12  1  0
 12 13  2  0
 13 14  1  0
 14 15  1  0
 15 16  2  0
 16 17  1  0
 17 18  2  0
 18 19  1  0
 19 20  2  0
 20 21  1  0
 21 22  2  0
 13 23  1  0
 23 24  2  0
  8  4  1  0
 24 10  1  0
 22 14  1  0
 22 17  1  0
  3 25  1  0
  3 26  1  0
  5 27  1  0
  5 28  1  0
  6 29  1  0
  6 30  1  0
  7 31  1  0
  7 32  1  0
  8 33  1  0
  8 34  1  0
  9 35  1  0
 11 36  1  0
 12 37  1  0
 15 38  1  0
 18 39  1  0
 19 40  1  0
 20 41  1  0
 21 42  1  0
 23 43  1  0
 24 44  1  0
M  END
>  <Energy>  (994) 
110.61843564486591

>  <compound_id>  (994) 
9279

>  <target_id>  (994) 
1

>  <reference_id>  (994) 
94

>  <inspiration_ids>  (994) 
[94, 95]

>  <energy_score>  (994) 
-5.128940761338356

>  <distance_score>  (994) 
14.93412877643142

>  <path>  (994) 
/opt/xchem-fragalysis-2/maxwin/BulkDock/SCRATCH/511016/C9279-P94/C9279-P94.minimised.mol

>  <scratch_subdir>  (994) 
/opt/xchem-fragalysis-2/maxwin/BulkDock/SCRATCH/511016/C9279-P94

>  <fragmenstein_runtime>  (994) 
35.64211654663086

>  <fragmenstein_outcome>  (994) 
too moved

>  <fragmenstein_mode>  (994) 
expansion

>  <fragmenstein_error>  (994) 


$$$$
C9279-P95
     RDKit          3D

 44 47  0  0  0  0  0  0  0  0999 V2000
  -17.6715   -7.6640   21.8068 O   0  0  0  0  0  0  0  0  0  0  0  0
  -17.1754   -7.0889   22.7409 C   0  0  0  0  0  0  0  0  0  0  0  0
  -17.0232   -5.4749   22.6870 C   0  0  0  0  0  0  0  0  0  0  0  0
  -16.5353   -4.9175   21.3873 N   0  0  0  0  0  0  0  0  0  0  0  0
  -15.8883   -3.5948   21.4556 C   0  0  0  0  0  0  0  0  0  0  0  0
  -15.8037   -3.1101   20.0008 C   0  0  0  0  0  0  0  0  0  0  0  0
  -16.6938   -4.0721   19.2297 C   0  0  0  0  0  0  0  0  0  0  0  0
  -17.5167   -4.7658   20.3185 C   0  0  0  0  0  0  0  0  0  0  0  0
  -16.7212   -7.6007   24.0612 N   0  0  0  0  0  0  0  0  0  0  0  0
  -16.6518   -8.9337   24.5757 C   0  0  0  0  0  0  0  0  0  0  0  0
  -16.0438   -9.1679   25.8260 C   0  0  0  0  0  0  0  0  0  0  0  0
  -15.8629  -10.4819   26.3699 C   0  0  0  0  0  0  0  0  0  0  0  0
  -16.3109  -11.6121   25.6816 C   0  0  0  0  0  0  0  0  0  0  0  0
  -16.1173  -12.9498   26.1969 N   0  0  0  0  0  0  0  0  0  0  0  0
  -16.9206  -14.0428   25.9113 C   0  0  0  0  0  0  0  0  0  0  0  0
  -16.6248  -15.1116   26.6128 N   0  0  0  0  0  0  0  0  0  0  0  0
  -15.5379  -14.7424   27.3417 C   0  0  0  0  0  0  0  0  0  0  0  0
  -14.8265  -15.5051   28.2619 C   0  0  0  0  0  0  0  0  0  0  0  0
  -13.6718  -14.9832   28.8514 C   0  0  0  0  0  0  0  0  0  0  0  0
  -13.2275  -13.7159   28.5073 C   0  0  0  0  0  0  0  0  0  0  0  0
  -13.9543  -12.9153   27.6168 C   0  0  0  0  0  0  0  0  0  0  0  0
  -15.1419  -13.4339   27.0713 C   0  0  0  0  0  0  0  0  0  0  0  0
  -16.9881  -11.3735   24.4639 C   0  0  0  0  0  0  0  0  0  0  0  0
  -17.1405  -10.0599   23.9146 C   0  0  0  0  0  0  0  0  0  0  0  0
  -17.9902   -5.0391   22.9629 H   0  0  0  0  0  0  0  0  0  0  0  0
  -16.3003   -5.1903   23.4599 H   0  0  0  0  0  0  0  0  0  0  0  0
  -16.4992   -2.8953   22.0401 H   0  0  0  0  0  0  0  0  0  0  0  0
  -14.8978   -3.6472   21.9181 H   0  0  0  0  0  0  0  0  0  0  0  0
  -14.7781   -3.1316   19.6184 H   0  0  0  0  0  0  0  0  0  0  0  0
  -16.1744   -2.0824   19.9211 H   0  0  0  0  0  0  0  0  0  0  0  0
  -16.0556   -4.7886   18.7034 H   0  0  0  0  0  0  0  0  0  0  0  0
  -17.3221   -3.5601   18.4954 H   0  0  0  0  0  0  0  0  0  0  0  0
  -17.9495   -5.7133   20.0063 H   0  0  0  0  0  0  0  0  0  0  0  0
  -18.3428   -4.1153   20.6347 H   0  0  0  0  0  0  0  0  0  0  0  0
  -16.2762   -6.8506   24.5728 H   0  0  0  0  0  0  0  0  0  0  0  0
  -15.6678   -8.3273   26.4068 H   0  0  0  0  0  0  0  0  0  0  0  0
  -15.3964  -10.5601   27.3481 H   0  0  0  0  0  0  0  0  0  0  0  0
  -17.7481  -13.9829   25.2183 H   0  0  0  0  0  0  0  0  0  0  0  0
  -15.2050  -16.4943   28.4579 H   0  0  0  0  0  0  0  0  0  0  0  0
  -13.0982  -15.5732   29.5601 H   0  0  0  0  0  0  0  0  0  0  0  0
  -12.3093  -13.3325   28.9469 H   0  0  0  0  0  0  0  0  0  0  0  0
  -13.5868  -11.9291   27.3551 H   0  0  0  0  0  0  0  0  0  0  0  0
  -17.3660  -12.2007   23.8662 H   0  0  0  0  0  0  0  0  0  0  0  0
  -17.6275   -9.9518   22.9475 H   0  0  0  0  0  0  0  0  0  0  0  0
  1  2  2  0
  2  3  1  0
  3  4  1  0
  4  5  1  0
  5  6  1  0
  6  7  1  0
  7  8  1  0
  2  9  1  0
  9 10  1  0
 10 11  2  0
 11 12  1  0
 12 13  2  0
 13 14  1  0
 14 15  1  0
 15 16  2  0
 16 17  1  0
 17 18  2  0
 18 19  1  0
 19 20  2  0
 20 21  1  0
 21 22  2  0
 13 23  1  0
 23 24  2  0
  8  4  1  0
 24 10  1  0
 22 14  1  0
 22 17  1  0
  3 25  1  0
  3 26  1  0
  5 27  1  0
  5 28  1  0
  6 29  1  0
  6 30  1  0
  7 31  1  0
  7 32  1  0
  8 33  1  0
  8 34  1  0
  9 35  1  0
 11 36  1  0
 12 37  1  0
 15 38  1  0
 18 39  1  0
 19 40  1  0
 20 41  1  0
 21 42  1  0
 23 43  1  0
 24 44  1  0
M  END
>  <Energy>  (995) 
105.39488626266396

>  <compound_id>  (995) 
9279

>  <target_id>  (995) 
1

>  <reference_id>  (995) 
95

>  <inspiration_ids>  (995) 
[94, 95]

>  <energy_score>  (995) 
-10.352490143537693

>  <distance_score>  (995) 
16.423421112259206

>  <path>  (995) 
/opt/xchem-fragalysis-2/maxwin/BulkDock/SCRATCH/511016/C9279-P95/C9279-P95.minimised.mol

>  <scratch_subdir>  (995) 
/opt/xchem-fragalysis-2/maxwin/BulkDock/SCRATCH/511016/C9279-P95

>  <fragmenstein_runtime>  (995) 
31.227358102798462

>  <fragmenstein_outcome>  (995) 
too moved

>  <fragmenstein_mode>  (995) 
expansion

>  <fragmenstein_error>  (995) 


$$$$
C9280-P94
     RDKit          3D

 44 47  0  0  0  0  0  0  0  0999 V2000
   -7.5748   -7.3478   20.0282 O   0  0  0  0  0  0  0  0  0  0  0  0
   -7.4211   -7.7015   18.9076 C   0  0  0  0  0  0  0  0  0  0  0  0
   -7.6574   -9.0994   18.2526 N   0  0  0  0  0  0  0  0  0  0  0  0
   -8.1247  -10.6817   18.9910 C   0  0  0  0  0  0  0  0  0  0  0  0
   -8.6095  -12.4058   18.6763 C   0  0  0  0  0  0  0  0  0  0  0  0
   -8.3119  -13.2643   19.7054 C   0  0  0  0  0  0  0  0  0  0  0  0
   -9.4216  -13.2022   21.1858 C   0  0  0  0  0  0  0  0  0  0  0  0
  -10.9383  -13.5566   21.4317 C   0  0  0  0  0  0  0  0  0  0  0  0
  -11.4563  -14.9753   22.7495 N   0  0  0  0  0  0  0  0  0  0  0  0
  -12.5858  -16.1418   22.4038 C   0  0  0  0  0  0  0  0  0  0  0  0
  -13.0624  -16.8602   23.4073 N   0  0  0  0  0  0  0  0  0  0  0  0
  -12.2924  -16.5822   24.4432 C   0  0  0  0  0  0  0  0  0  0  0  0
  -11.1869  -16.8478   25.2989 C   0  0  0  0  0  0  0  0  0  0  0  0
  -11.0047  -16.2412   26.5813 C   0  0  0  0  0  0  0  0  0  0  0  0
  -11.9001  -15.2736   26.9151 C   0  0  0  0  0  0  0  0  0  0  0  0
  -12.5457  -14.7006   25.8113 C   0  0  0  0  0  0  0  0  0  0  0  0
  -12.4240  -15.2754   24.3091 C   0  0  0  0  0  0  0  0  0  0  0  0
  -10.3559  -13.6758   19.5941 C   0  0  0  0  0  0  0  0  0  0  0  0
   -9.8984  -12.6708   18.5183 C   0  0  0  0  0  0  0  0  0  0  0  0
   -6.9826   -6.9043   17.6735 N   0  0  0  0  0  0  0  0  0  0  0  0
   -6.7320   -5.4358   17.5070 C   0  0  0  0  0  0  0  0  0  0  0  0
   -6.0791   -5.1444   16.1797 C   0  0  0  0  0  0  0  0  0  0  0  0
   -5.0523   -6.2194   16.2318 C   0  0  0  0  0  0  0  0  0  0  0  0
   -5.4742   -6.9480   17.5159 C   0  0  0  0  0  0  0  0  0  0  0  0
   -7.3471   -9.0771   17.2944 H   0  0  0  0  0  0  0  0  0  0  0  0
   -9.1239  -10.2901   19.0900 H   0  0  0  0  0  0  0  0  0  0  0  0
   -7.5464  -11.1809   18.0827 H   0  0  0  0  0  0  0  0  0  0  0  0
   -7.2374  -13.1035   19.8608 H   0  0  0  0  0  0  0  0  0  0  0  0
   -8.9660  -12.6046   21.9986 H   0  0  0  0  0  0  0  0  0  0  0  0
  -12.9410  -16.1240   21.3727 H   0  0  0  0  0  0  0  0  0  0  0  0
  -10.3291  -17.2991   24.8516 H   0  0  0  0  0  0  0  0  0  0  0  0
  -10.1802  -16.5165   27.2282 H   0  0  0  0  0  0  0  0  0  0  0  0
  -11.8950  -14.7827   27.8816 H   0  0  0  0  0  0  0  0  0  0  0  0
  -12.8854  -13.6763   26.0007 H   0  0  0  0  0  0  0  0  0  0  0  0
  -10.1596  -14.7263   19.2065 H   0  0  0  0  0  0  0  0  0  0  0  0
  -10.6010  -11.9204   18.1604 H   0  0  0  0  0  0  0  0  0  0  0  0
   -6.2329   -4.9919   18.3854 H   0  0  0  0  0  0  0  0  0  0  0  0
   -7.7281   -4.9735   17.5196 H   0  0  0  0  0  0  0  0  0  0  0  0
   -5.6619   -4.1359   16.1240 H   0  0  0  0  0  0  0  0  0  0  0  0
   -6.7719   -5.2942   15.3447 H   0  0  0  0  0  0  0  0  0  0  0  0
   -5.1239   -6.8718   15.3546 H   0  0  0  0  0  0  0  0  0  0  0  0
   -4.0271   -5.8447   16.3036 H   0  0  0  0  0  0  0  0  0  0  0  0
   -4.9444   -6.6289   18.4278 H   0  0  0  0  0  0  0  0  0  0  0  0
   -5.1782   -7.9847   17.3322 H   0  0  0  0  0  0  0  0  0  0  0  0
  1  2  2  0
  2  3  1  0
  3  4  1  0
  4  5  1  0
  5  6  2  0
  6  7  1  0
  7  8  2  0
  8  9  1  0
  9 10  1  0
 10 11  2  0
 11 12  1  0
 12 13  2  0
 13 14  1  0
 14 15  2  0
 15 16  1  0
 16 17  2  0
  8 18  1  0
 18 19  2  0
  2 20  1  0
 20 21  1  0
 21 22  1  0
 22 23  1  0
 23 24  1  0
 19  5  1  0
 24 20  1  0
 17  9  1  0
 17 12  1  0
  3 25  1  0
  4 26  1  0
  4 27  1  0
  6 28  1  0
  7 29  1  0
 10 30  1  0
 13 31  1  0
 14 32  1  0
 15 33  1  0
 16 34  1  0
 18 35  1  0
 19 36  1  0
 21 37  1  0
 21 38  1  0
 22 39  1  0
 22 40  1  0
 23 41  1  0
 23 42  1  0
 24 43  1  0
 24 44  1  0
M  END
>  <Energy>  (996) 
939.00592540086211

>  <compound_id>  (996) 
9280

>  <target_id>  (996) 
1

>  <reference_id>  (996) 
94

>  <inspiration_ids>  (996) 
[94, 95]

>  <energy_score>  (996) 
916.616167587799

>  <distance_score>  (996) 
13.26384757362503

>  <path>  (996) 
/opt/xchem-fragalysis-2/maxwin/BulkDock/SCRATCH/511016/C9280-P94/C9280-P94.minimised.mol

>  <scratch_subdir>  (996) 
/opt/xchem-fragalysis-2/maxwin/BulkDock/SCRATCH/511016/C9280-P94

>  <fragmenstein_runtime>  (996) 
29.829230785369873

>  <fragmenstein_outcome>  (996) 
too moved

>  <fragmenstein_mode>  (996) 
expansion

>  <fragmenstein_error>  (996) 


$$$$
C9280-P95
     RDKit          3D

 44 47  0  0  0  0  0  0  0  0999 V2000
  -18.9990   -9.7966   24.6505 O   0  0  0  0  0  0  0  0  0  0  0  0
  -18.2505  -10.2043   23.8435 C   0  0  0  0  0  0  0  0  0  0  0  0
  -17.0722  -11.0535   23.9907 N   0  0  0  0  0  0  0  0  0  0  0  0
  -16.4215  -11.5628   25.1691 C   0  0  0  0  0  0  0  0  0  0  0  0
  -16.6066  -12.9777   25.6534 C   0  0  0  0  0  0  0  0  0  0  0  0
  -15.6351  -13.4586   26.5645 C   0  0  0  0  0  0  0  0  0  0  0  0
  -15.8307  -14.6094   27.3469 C   0  0  0  0  0  0  0  0  0  0  0  0
  -17.0208  -15.3332   27.2405 C   0  0  0  0  0  0  0  0  0  0  0  0
  -17.3260  -16.3087   28.2390 N   0  0  0  0  0  0  0  0  0  0  0  0
  -16.9470  -16.1754   29.5579 C   0  0  0  0  0  0  0  0  0  0  0  0
  -17.4214  -17.1138   30.3443 N   0  0  0  0  0  0  0  0  0  0  0  0
  -18.1385  -17.9249   29.5082 C   0  0  0  0  0  0  0  0  0  0  0  0
  -18.8058  -19.1243   29.8184 C   0  0  0  0  0  0  0  0  0  0  0  0
  -19.3741  -19.8648   28.7778 C   0  0  0  0  0  0  0  0  0  0  0  0
  -19.3038  -19.4050   27.4615 C   0  0  0  0  0  0  0  0  0  0  0  0
  -18.6783  -18.1904   27.1385 C   0  0  0  0  0  0  0  0  0  0  0  0
  -18.0997  -17.4583   28.1862 C   0  0  0  0  0  0  0  0  0  0  0  0
  -17.9570  -14.9386   26.2681 C   0  0  0  0  0  0  0  0  0  0  0  0
  -17.7568  -13.7586   25.4967 C   0  0  0  0  0  0  0  0  0  0  0  0
  -18.1695   -9.9263   22.3934 N   0  0  0  0  0  0  0  0  0  0  0  0
  -19.0838   -9.1292   21.4981 C   0  0  0  0  0  0  0  0  0  0  0  0
  -18.4598   -8.6706   20.1923 C   0  0  0  0  0  0  0  0  0  0  0  0
  -17.0752   -8.4357   20.6639 C   0  0  0  0  0  0  0  0  0  0  0  0
  -17.2525   -8.7469   22.1370 C   0  0  0  0  0  0  0  0  0  0  0  0
  -16.7092  -11.2779   23.0744 H   0  0  0  0  0  0  0  0  0  0  0  0
  -16.7249  -10.9035   25.9922 H   0  0  0  0  0  0  0  0  0  0  0  0
  -15.3542  -11.3960   25.0052 H   0  0  0  0  0  0  0  0  0  0  0  0
  -14.7240  -12.8832   26.7327 H   0  0  0  0  0  0  0  0  0  0  0  0
  -15.0502  -14.8902   28.0521 H   0  0  0  0  0  0  0  0  0  0  0  0
  -16.3568  -15.3340   29.8970 H   0  0  0  0  0  0  0  0  0  0  0  0
  -18.8328  -19.4838   30.8405 H   0  0  0  0  0  0  0  0  0  0  0  0
  -19.8601  -20.8124   28.9938 H   0  0  0  0  0  0  0  0  0  0  0  0
  -19.7307  -20.0089   26.6633 H   0  0  0  0  0  0  0  0  0  0  0  0
  -18.5997  -17.8724   26.1045 H   0  0  0  0  0  0  0  0  0  0  0  0
  -18.9124  -15.4507   26.1723 H   0  0  0  0  0  0  0  0  0  0  0  0
  -18.5573  -13.4176   24.8417 H   0  0  0  0  0  0  0  0  0  0  0  0
  -19.5415   -8.3024   22.0679 H   0  0  0  0  0  0  0  0  0  0  0  0
  -19.9329   -9.7907   21.2830 H   0  0  0  0  0  0  0  0  0  0  0  0
  -18.9580   -7.7713   19.8188 H   0  0  0  0  0  0  0  0  0  0  0  0
  -18.4956   -9.4246   19.4063 H   0  0  0  0  0  0  0  0  0  0  0  0
  -16.3601   -9.1103   20.1833 H   0  0  0  0  0  0  0  0  0  0  0  0
  -16.7698   -7.4002   20.5256 H   0  0  0  0  0  0  0  0  0  0  0  0
  -16.2690   -9.0036   22.5524 H   0  0  0  0  0  0  0  0  0  0  0  0
  -17.5673   -7.8704   22.7306 H   0  0  0  0  0  0  0  0  0  0  0  0
  1  2  2  0
  2  3  1  0
  3  4  1  0
  4  5  1  0
  5  6  2  0
  6  7  1  0
  7  8  2  0
  8  9  1  0
  9 10  1  0
 10 11  2  0
 11 12  1  0
 12 13  2  0
 13 14  1  0
 14 15  2  0
 15 16  1  0
 16 17  2  0
  8 18  1  0
 18 19  2  0
  2 20  1  0
 20 21  1  0
 21 22  1  0
 22 23  1  0
 23 24  1  0
 19  5  1  0
 24 20  1  0
 17  9  1  0
 17 12  1  0
  3 25  1  0
  4 26  1  0
  4 27  1  0
  6 28  1  0
  7 29  1  0
 10 30  1  0
 13 31  1  0
 14 32  1  0
 15 33  1  0
 16 34  1  0
 18 35  1  0
 19 36  1  0
 21 37  1  0
 21 38  1  0
 22 39  1  0
 22 40  1  0
 23 41  1  0
 23 42  1  0
 24 43  1  0
 24 44  1  0
M  END
>  <Energy>  (997) 
56.306433554165466

>  <compound_id>  (997) 
9280

>  <target_id>  (997) 
1

>  <reference_id>  (997) 
95

>  <inspiration_ids>  (997) 
[94, 95]

>  <energy_score>  (997) 
33.916675741116705

>  <distance_score>  (997) 
17.573669465165306

>  <path>  (997) 
/opt/xchem-fragalysis-2/maxwin/BulkDock/SCRATCH/511016/C9280-P95/C9280-P95.minimised.mol

>  <scratch_subdir>  (997) 
/opt/xchem-fragalysis-2/maxwin/BulkDock/SCRATCH/511016/C9280-P95

>  <fragmenstein_runtime>  (997) 
34.954862117767334

>  <fragmenstein_outcome>  (997) 
too moved

>  <fragmenstein_mode>  (997) 
expansion

>  <fragmenstein_error>  (997) 


$$$$
C9197-P94
     RDKit          3D

 34 36  0  0  0  0  0  0  0  0999 V2000
   -8.6358  -17.5706   17.1177 O   0  0  0  0  0  0  0  0  0  0  0  0
   -7.6204  -17.0145   17.2757 C   0  0  0  0  0  0  0  0  0  0  0  0
   -7.1195  -15.6661   16.2858 N   0  0  0  0  0  0  0  0  0  0  0  0
   -7.9120  -14.8830   14.7478 C   0  0  0  0  0  0  0  0  0  0  0  0
   -8.4917  -13.2866   13.6886 C   0  0  0  0  0  0  0  0  0  0  0  0
   -9.0259  -12.0183   14.3231 C   0  0  0  0  0  0  0  0  0  0  0  0
   -8.9227  -10.9556   13.2118 C   0  0  0  0  0  0  0  0  0  0  0  0
   -9.2888  -11.7496   11.9847 C   0  0  0  0  0  0  0  0  0  0  0  0
   -9.3880  -13.1273   12.4966 N   0  0  0  0  0  0  0  0  0  0  0  0
   -6.6048  -17.9171   18.6170 C   0  0  0  0  0  0  0  0  0  0  0  0
   -6.9501  -19.3283   18.9690 C   0  0  0  0  0  0  0  0  0  0  0  0
   -6.6388  -20.0734   20.1281 C   0  0  0  0  0  0  0  0  0  0  0  0
   -7.3093  -21.8269   20.3725 Br  0  0  0  0  0  0  0  0  0  0  0  0
   -5.7785  -19.5436   21.0388 C   0  0  0  0  0  0  0  0  0  0  0  0
   -4.9909  -18.6058   20.3945 C   0  0  0  0  0  0  0  0  0  0  0  0
   -3.6967  -18.2711   20.6942 N   0  0  0  0  0  0  0  0  0  0  0  0
   -3.1673  -17.7432   19.5598 C   0  0  0  0  0  0  0  0  0  0  0  0
   -4.0944  -17.4743   18.6612 N   0  0  0  0  0  0  0  0  0  0  0  0
   -5.2962  -17.9284   19.1702 C   0  0  0  0  0  0  0  0  0  0  0  0
   -6.2739  -15.3025   16.6460 H   0  0  0  0  0  0  0  0  0  0  0  0
   -7.5837  -15.7391   14.1725 H   0  0  0  0  0  0  0  0  0  0  0  0
   -8.9606  -15.0054   14.7788 H   0  0  0  0  0  0  0  0  0  0  0  0
   -7.5449  -12.9532   13.2197 H   0  0  0  0  0  0  0  0  0  0  0  0
   -9.9673  -12.2704   14.7693 H   0  0  0  0  0  0  0  0  0  0  0  0
   -8.5153  -11.6634   15.1779 H   0  0  0  0  0  0  0  0  0  0  0  0
   -7.8886  -10.6013   13.1207 H   0  0  0  0  0  0  0  0  0  0  0  0
   -9.5316  -10.0650   13.3809 H   0  0  0  0  0  0  0  0  0  0  0  0
  -10.2232  -11.4266   11.5221 H   0  0  0  0  0  0  0  0  0  0  0  0
   -8.5036  -11.6819   11.2242 H   0  0  0  0  0  0  0  0  0  0  0  0
  -10.3262  -13.4549   12.6556 H   0  0  0  0  0  0  0  0  0  0  0  0
   -7.5996  -19.8984   18.2961 H   0  0  0  0  0  0  0  0  0  0  0  0
   -5.4731  -20.0572   21.9403 H   0  0  0  0  0  0  0  0  0  0  0  0
   -3.1740  -18.5922   21.4963 H   0  0  0  0  0  0  0  0  0  0  0  0
   -2.1105  -17.5382   19.4494 H   0  0  0  0  0  0  0  0  0  0  0  0
  1  2  2  0
  2  3  1  0
  3  4  1  0
  4  5  1  0
  5  6  1  0
  6  7  1  0
  7  8  1  0
  8  9  1  0
  2 10  1  0
 10 11  2  0
 11 12  1  0
 12 13  1  0
 12 14  2  0
 14 15  1  0
 15 16  1  0
 16 17  1  0
 17 18  2  0
 18 19  1  0
  9  5  1  0
 19 10  1  0
 19 15  2  0
  3 20  1  0
  4 21  1  0
  4 22  1  0
  5 23  1  0
  6 24  1  0
  6 25  1  0
  7 26  1  0
  7 27  1  0
  8 28  1  0
  8 29  1  0
  9 30  1  0
 11 31  1  0
 14 32  1  0
 16 33  1  0
 17 34  1  0
M  END
>  <Energy>  (998) 
353.19914219121114

>  <compound_id>  (998) 
9197

>  <target_id>  (998) 
1

>  <reference_id>  (998) 
94

>  <inspiration_ids>  (998) 
[94, 95]

>  <energy_score>  (998) 
302.494672150132

>  <distance_score>  (998) 
13.64804814727867

>  <path>  (998) 
/opt/xchem-fragalysis-2/maxwin/BulkDock/SCRATCH/511016/C9197-P94/C9197-P94.minimised.mol

>  <scratch_subdir>  (998) 
/opt/xchem-fragalysis-2/maxwin/BulkDock/SCRATCH/511016/C9197-P94

>  <fragmenstein_runtime>  (998) 
21.252161979675293

>  <fragmenstein_outcome>  (998) 
too moved

>  <fragmenstein_mode>  (998) 
expansion

>  <fragmenstein_error>  (998) 


$$$$
C9197-P95
     RDKit          3D

 34 36  0  0  0  0  0  0  0  0999 V2000
   -7.8816  -17.7573   22.1700 O   0  0  0  0  0  0  0  0  0  0  0  0
   -7.8535  -18.9052   22.4785 C   0  0  0  0  0  0  0  0  0  0  0  0
   -7.1096  -19.9980   21.9377 N   0  0  0  0  0  0  0  0  0  0  0  0
   -6.2317  -20.0735   20.7886 C   0  0  0  0  0  0  0  0  0  0  0  0
   -5.6061  -18.7587   20.2128 C   0  0  0  0  0  0  0  0  0  0  0  0
   -5.4557  -18.9505   18.7231 C   0  0  0  0  0  0  0  0  0  0  0  0
   -4.2351  -18.1898   18.2775 C   0  0  0  0  0  0  0  0  0  0  0  0
   -3.3615  -18.2195   19.5017 C   0  0  0  0  0  0  0  0  0  0  0  0
   -4.2570  -18.3605   20.6514 N   0  0  0  0  0  0  0  0  0  0  0  0
   -8.7177  -19.1349   23.7553 C   0  0  0  0  0  0  0  0  0  0  0  0
   -7.0145  -18.7950   24.6114 C   0  0  0  0  0  0  0  0  0  0  0  0
   -6.8901  -19.6483   26.2918 C   0  0  0  0  0  0  0  0  0  0  0  0
   -5.4017  -19.1383   27.3865 Br  0  0  0  0  0  0  0  0  0  0  0  0
   -8.0626  -21.1049   26.9292 C   0  0  0  0  0  0  0  0  0  0  0  0
  -10.0084  -20.9044   26.2980 C   0  0  0  0  0  0  0  0  0  0  0  0
  -11.4251  -21.6710   26.3064 N   0  0  0  0  0  0  0  0  0  0  0  0
  -12.0285  -21.6211   24.9404 C   0  0  0  0  0  0  0  0  0  0  0  0
  -11.4456  -20.9327   23.9268 N   0  0  0  0  0  0  0  0  0  0  0  0
  -10.1731  -20.4422   24.3332 C   0  0  0  0  0  0  0  0  0  0  0  0
   -7.3979  -20.8497   22.3936 H   0  0  0  0  0  0  0  0  0  0  0  0
   -5.4393  -20.7866   21.0434 H   0  0  0  0  0  0  0  0  0  0  0  0
   -6.8485  -20.5553   20.0198 H   0  0  0  0  0  0  0  0  0  0  0  0
   -6.2755  -17.9195   20.3954 H   0  0  0  0  0  0  0  0  0  0  0  0
   -5.2839  -20.0114   18.5002 H   0  0  0  0  0  0  0  0  0  0  0  0
   -6.3857  -18.6234   18.2614 H   0  0  0  0  0  0  0  0  0  0  0  0
   -3.7482  -18.6550   17.4147 H   0  0  0  0  0  0  0  0  0  0  0  0
   -4.5125  -17.1854   17.9935 H   0  0  0  0  0  0  0  0  0  0  0  0
   -2.7001  -19.0931   19.4607 H   0  0  0  0  0  0  0  0  0  0  0  0
   -2.7311  -17.3304   19.5904 H   0  0  0  0  0  0  0  0  0  0  0  0
   -3.8869  -18.9884   21.3591 H   0  0  0  0  0  0  0  0  0  0  0  0
   -6.2867  -18.0755   24.2424 H   0  0  0  0  0  0  0  0  0  0  0  0
   -7.7805  -20.7593   27.9105 H   0  0  0  0  0  0  0  0  0  0  0  0
  -11.6927  -22.3025   27.0497 H   0  0  0  0  0  0  0  0  0  0  0  0
  -12.8685  -22.2855   24.7828 H   0  0  0  0  0  0  0  0  0  0  0  0
  1  2  2  0
  2  3  1  0
  3  4  1  0
  4  5  1  0
  5  6  1  0
  6  7  1  0
  7  8  1  0
  8  9  1  0
  2 10  1  0
 10 11  2  0
 11 12  1  0
 12 13  1  0
 12 14  2  0
 14 15  1  0
 15 16  1  0
 16 17  1  0
 17 18  2  0
 18 19  1  0
  9  5  1  0
 19 10  1  0
 19 15  2  0
  3 20  1  0
  4 21  1  0
  4 22  1  0
  5 23  1  0
  6 24  1  0
  6 25  1  0
  7 26  1  0
  7 27  1  0
  8 28  1  0
  8 29  1  0
  9 30  1  0
 11 31  1  0
 14 32  1  0
 16 33  1  0
 17 34  1  0
M  END
>  <Energy>  (999) 
804.07001177849156

>  <compound_id>  (999) 
9197

>  <target_id>  (999) 
1

>  <reference_id>  (999) 
95

>  <inspiration_ids>  (999) 
[94, 95]

>  <energy_score>  (999) 
753.3655417374048

>  <distance_score>  (999) 
15.683152744215025

>  <path>  (999) 
/opt/xchem-fragalysis-2/maxwin/BulkDock/SCRATCH/511016/C9197-P95/C9197-P95.minimised.mol

>  <scratch_subdir>  (999) 
/opt/xchem-fragalysis-2/maxwin/BulkDock/SCRATCH/511016/C9197-P95

>  <fragmenstein_runtime>  (999) 
20.466946125030518

>  <fragmenstein_outcome>  (999) 
too moved

>  <fragmenstein_mode>  (999) 
expansion

>  <fragmenstein_error>  (999) 


$$$$
C9199-P94
     RDKit          3D

 43 46  0  0  0  0  0  0  0  0999 V2000
   -2.8555   -6.1624   11.3401 O   0  0  0  0  0  0  0  0  0  0  0  0
   -3.1456   -6.9062   12.2432 C   0  0  0  0  0  0  0  0  0  0  0  0
   -2.3189   -6.8285   13.5376 C   0  0  0  0  0  0  0  0  0  0  0  0
   -2.9621   -5.8024   14.4696 C   0  0  0  0  0  0  0  0  0  0  0  0
   -2.0491   -4.5969   14.4079 C   0  0  0  0  0  0  0  0  0  0  0  0
   -0.6996   -5.1913   14.0852 C   0  0  0  0  0  0  0  0  0  0  0  0
   -0.9630   -6.3213   13.1988 N   0  0  0  0  0  0  0  0  0  0  0  0
   -4.2230   -7.8285   12.3743 N   0  0  0  0  0  0  0  0  0  0  0  0
   -3.8046   -9.1936   11.8602 C   0  0  0  0  0  0  0  0  0  0  0  0
   -4.6334  -10.4376   12.2713 C   0  0  0  0  0  0  0  0  0  0  0  0
   -5.8618  -10.5055   11.4896 N   0  0  0  0  0  0  0  0  0  0  0  0
   -7.0055  -10.8504   12.2094 C   0  0  0  0  0  0  0  0  0  0  0  0
   -7.5870  -10.0359   13.1723 C   0  0  0  0  0  0  0  0  0  0  0  0
   -8.6703  -10.4610   13.9167 C   0  0  0  0  0  0  0  0  0  0  0  0
   -9.0089  -11.7974   13.9268 C   0  0  0  0  0  0  0  0  0  0  0  0
   -8.9806  -12.1509   12.6199 C   0  0  0  0  0  0  0  0  0  0  0  0
   -9.9152  -12.7297   11.8339 N   0  0  0  0  0  0  0  0  0  0  0  0
   -9.6535  -12.3168   10.5557 C   0  0  0  0  0  0  0  0  0  0  0  0
   -8.4088  -11.9167   10.4523 N   0  0  0  0  0  0  0  0  0  0  0  0
   -8.0261  -11.6737   11.7388 C   0  0  0  0  0  0  0  0  0  0  0  0
   -6.0274   -9.2948   10.7214 C   0  0  0  0  0  0  0  0  0  0  0  0
   -5.4048   -8.0881   11.4811 C   0  0  0  0  0  0  0  0  0  0  0  0
   -2.2440   -7.8133   14.0079 H   0  0  0  0  0  0  0  0  0  0  0  0
   -2.9630   -6.1947   15.4940 H   0  0  0  0  0  0  0  0  0  0  0  0
   -3.9897   -5.5306   14.2101 H   0  0  0  0  0  0  0  0  0  0  0  0
   -2.3482   -3.9116   13.6184 H   0  0  0  0  0  0  0  0  0  0  0  0
   -2.0435   -4.0383   15.3488 H   0  0  0  0  0  0  0  0  0  0  0  0
   -0.2170   -5.5585   14.9984 H   0  0  0  0  0  0  0  0  0  0  0  0
   -0.0263   -4.4631   13.6227 H   0  0  0  0  0  0  0  0  0  0  0  0
   -1.0059   -5.9819   12.2311 H   0  0  0  0  0  0  0  0  0  0  0  0
   -2.8356   -9.3608   12.3576 H   0  0  0  0  0  0  0  0  0  0  0  0
   -3.5053   -9.1976   10.8129 H   0  0  0  0  0  0  0  0  0  0  0  0
   -4.0436  -11.3397   12.0745 H   0  0  0  0  0  0  0  0  0  0  0  0
   -4.8365  -10.3871   13.3366 H   0  0  0  0  0  0  0  0  0  0  0  0
   -7.2342   -9.0310   13.3311 H   0  0  0  0  0  0  0  0  0  0  0  0
   -9.1947   -9.7325   14.5071 H   0  0  0  0  0  0  0  0  0  0  0  0
   -9.6629  -12.2396   14.6517 H   0  0  0  0  0  0  0  0  0  0  0  0
  -10.7184  -13.2532   12.1240 H   0  0  0  0  0  0  0  0  0  0  0  0
  -10.3311  -12.4707    9.7267 H   0  0  0  0  0  0  0  0  0  0  0  0
   -5.5489   -9.4485    9.7590 H   0  0  0  0  0  0  0  0  0  0  0  0
   -7.0729   -9.0889   10.4625 H   0  0  0  0  0  0  0  0  0  0  0  0
   -6.1869   -7.7563   12.1683 H   0  0  0  0  0  0  0  0  0  0  0  0
   -5.3507   -7.2682   10.7675 H   0  0  0  0  0  0  0  0  0  0  0  0
  1  2  2  0
  2  3  1  0
  3  4  1  0
  4  5  1  0
  5  6  1  0
  6  7  1  0
  2  8  1  0
  8  9  1  0
  9 10  1  0
 10 11  1  0
 11 12  1  0
 12 13  2  0
 13 14  1  0
 14 15  2  0
 15 16  1  0
 16 17  1  0
 17 18  1  0
 18 19  2  0
 19 20  1  0
 11 21  1  0
 21 22  1  0
  7  3  1  0
 22  8  1  0
 20 12  1  0
 20 16  2  0
  3 23  1  0
  4 24  1  0
  4 25  1  0
  5 26  1  0
  5 27  1  0
  6 28  1  0
  6 29  1  0
  7 30  1  0
  9 31  1  0
  9 32  1  0
 10 33  1  0
 10 34  1  0
 13 35  1  0
 14 36  1  0
 15 37  1  0
 17 38  1  0
 18 39  1  0
 21 40  1  0
 21 41  1  0
 22 42  1  0
 22 43  1  0
M  END
>  <Energy>  (1000) 
268.68237468719826

>  <compound_id>  (1000) 
9199

>  <target_id>  (1000) 
1

>  <reference_id>  (1000) 
94

>  <inspiration_ids>  (1000) 
[94, 95]

>  <energy_score>  (1000) 
101.48602368330933

>  <distance_score>  (1000) 
17.884490761501148

>  <path>  (1000) 
/opt/xchem-fragalysis-2/maxwin/BulkDock/SCRATCH/511016/C9199-P94/C9199-P94.minimised.mol

>  <scratch_subdir>  (1000) 
/opt/xchem-fragalysis-2/maxwin/BulkDock/SCRATCH/511016/C9199-P94

>  <fragmenstein_runtime>  (1000) 
33.92417550086975

>  <fragmenstein_outcome>  (1000) 
too moved

>  <fragmenstein_mode>  (1000) 
expansion

>  <fragmenstein_error>  (1000) 


$$$$
C9199-P95
     RDKit          3D

 43 46  0  0  0  0  0  0  0  0999 V2000
  -11.6311   -9.2049   13.6272 O   0  0  0  0  0  0  0  0  0  0  0  0
  -12.2971   -8.6775   14.4228 C   0  0  0  0  0  0  0  0  0  0  0  0
  -12.1166   -6.7351   14.2523 C   0  0  0  0  0  0  0  0  0  0  0  0
  -10.7875   -5.6723   14.4291 C   0  0  0  0  0  0  0  0  0  0  0  0
  -11.1558   -4.5650   15.4006 C   0  0  0  0  0  0  0  0  0  0  0  0
  -12.6536   -4.5887   15.4649 C   0  0  0  0  0  0  0  0  0  0  0  0
  -13.1202   -5.6428   14.5242 N   0  0  0  0  0  0  0  0  0  0  0  0
  -13.1071   -9.4352   15.5909 N   0  0  0  0  0  0  0  0  0  0  0  0
  -14.7017  -10.0579   15.6291 C   0  0  0  0  0  0  0  0  0  0  0  0
  -15.0572  -10.5521   17.6545 C   0  0  0  0  0  0  0  0  0  0  0  0
  -14.7394  -12.4206   17.9420 N   0  0  0  0  0  0  0  0  0  0  0  0
  -16.0369  -13.7921   18.0638 C   0  0  0  0  0  0  0  0  0  0  0  0
  -16.8098  -14.4047   16.8250 C   0  0  0  0  0  0  0  0  0  0  0  0
  -18.0542  -15.1247   16.7629 C   0  0  0  0  0  0  0  0  0  0  0  0
  -18.7757  -15.4679   17.8994 C   0  0  0  0  0  0  0  0  0  0  0  0
  -18.3481  -14.8864   19.0741 C   0  0  0  0  0  0  0  0  0  0  0  0
  -18.8252  -15.0266   20.3621 N   0  0  0  0  0  0  0  0  0  0  0  0
  -18.2912  -14.0403   21.1278 C   0  0  0  0  0  0  0  0  0  0  0  0
  -17.4579  -13.3137   20.4235 N   0  0  0  0  0  0  0  0  0  0  0  0
  -17.3154  -13.9527   19.1433 C   0  0  0  0  0  0  0  0  0  0  0  0
  -13.2081  -11.5008   17.4060 C   0  0  0  0  0  0  0  0  0  0  0  0
  -13.1188  -10.8343   15.9971 C   0  0  0  0  0  0  0  0  0  0  0  0
  -11.7405   -6.9569   15.2318 H   0  0  0  0  0  0  0  0  0  0  0  0
  -10.4183   -5.2091   13.5253 H   0  0  0  0  0  0  0  0  0  0  0  0
   -9.8472   -6.0765   14.7712 H   0  0  0  0  0  0  0  0  0  0  0  0
  -10.7720   -3.5964   15.0638 H   0  0  0  0  0  0  0  0  0  0  0  0
  -10.7263   -4.7661   16.3883 H   0  0  0  0  0  0  0  0  0  0  0  0
  -13.1100   -3.6164   15.2496 H   0  0  0  0  0  0  0  0  0  0  0  0
  -12.9758   -4.8274   16.4860 H   0  0  0  0  0  0  0  0  0  0  0  0
  -13.5655   -5.2931   13.6879 H   0  0  0  0  0  0  0  0  0  0  0  0
  -15.5444   -9.5514   15.2232 H   0  0  0  0  0  0  0  0  0  0  0  0
  -14.8687  -10.8815   15.0091 H   0  0  0  0  0  0  0  0  0  0  0  0
  -14.4434  -10.1852   18.5120 H   0  0  0  0  0  0  0  0  0  0  0  0
  -15.8069   -9.8963   18.1974 H   0  0  0  0  0  0  0  0  0  0  0  0
  -16.2917  -14.4708   15.8687 H   0  0  0  0  0  0  0  0  0  0  0  0
  -18.3620  -15.5171   15.7949 H   0  0  0  0  0  0  0  0  0  0  0  0
  -19.6364  -16.1232   17.8469 H   0  0  0  0  0  0  0  0  0  0  0  0
  -19.5480  -15.6690   20.6483 H   0  0  0  0  0  0  0  0  0  0  0  0
  -18.5615  -13.8784   22.1618 H   0  0  0  0  0  0  0  0  0  0  0  0
  -13.0246  -10.7989   18.2480 H   0  0  0  0  0  0  0  0  0  0  0  0
  -12.1598  -11.8075   17.7163 H   0  0  0  0  0  0  0  0  0  0  0  0
  -12.0255  -11.0423   15.9234 H   0  0  0  0  0  0  0  0  0  0  0  0
  -13.1580  -10.2047   16.8088 H   0  0  0  0  0  0  0  0  0  0  0  0
  1  2  2  0
  2  3  1  0
  3  4  1  0
  4  5  1  0
  5  6  1  0
  6  7  1  0
  2  8  1  0
  8  9  1  0
  9 10  1  0
 10 11  1  0
 11 12  1  0
 12 13  2  0
 13 14  1  0
 14 15  2  0
 15 16  1  0
 16 17  1  0
 17 18  1  0
 18 19  2  0
 19 20  1  0
 11 21  1  0
 21 22  1  0
  7  3  1  0
 22  8  1  0
 20 12  1  0
 20 16  2  0
  3 23  1  0
  4 24  1  0
  4 25  1  0
  5 26  1  0
  5 27  1  0
  6 28  1  0
  6 29  1  0
  7 30  1  0
  9 31  1  0
  9 32  1  0
 10 33  1  0
 10 34  1  0
 13 35  1  0
 14 36  1  0
 15 37  1  0
 17 38  1  0
 18 39  1  0
 21 40  1  0
 21 41  1  0
 22 42  1  0
 22 43  1  0
M  END
>  <Energy>  (1001) 
1010.0746982520113

>  <compound_id>  (1001) 
9199

>  <target_id>  (1001) 
1

>  <reference_id>  (1001) 
95

>  <inspiration_ids>  (1001) 
[94, 95]

>  <energy_score>  (1001) 
842.8783472481006

>  <distance_score>  (1001) 
14.705933355598878

>  <path>  (1001) 
/opt/xchem-fragalysis-2/maxwin/BulkDock/SCRATCH/511016/C9199-P95/C9199-P95.minimised.mol

>  <scratch_subdir>  (1001) 
/opt/xchem-fragalysis-2/maxwin/BulkDock/SCRATCH/511016/C9199-P95

>  <fragmenstein_runtime>  (1001) 
26.093644618988037

>  <fragmenstein_outcome>  (1001) 
too moved

>  <fragmenstein_mode>  (1001) 
expansion

>  <fragmenstein_error>  (1001) 


$$$$
C9201-P94
     RDKit          3D

 40 42  0  0  0  0  0  0  0  0999 V2000
  -16.9259  -11.2655   23.5619 O   0  0  0  0  0  0  0  0  0  0  0  0
  -17.1962  -12.0404   22.6822 C   0  0  0  0  0  0  0  0  0  0  0  0
  -17.3711  -13.5021   22.7135 N   0  0  0  0  0  0  0  0  0  0  0  0
  -17.3650  -14.4629   23.8568 C   0  0  0  0  0  0  0  0  0  0  0  0
  -16.9691  -15.9425   23.5312 C   0  0  0  0  0  0  0  0  0  0  0  0
  -16.4572  -16.8364   24.6971 C   0  0  0  0  0  0  0  0  0  0  0  0
  -15.5737  -17.9106   24.2260 N   0  0  0  0  0  0  0  0  0  0  0  0
  -14.2747  -17.7004   23.8426 C   0  0  0  0  0  0  0  0  0  0  0  0
  -13.6906  -18.7923   23.4095 N   0  0  0  0  0  0  0  0  0  0  0  0
  -14.6253  -19.7834   23.5782 C   0  0  0  0  0  0  0  0  0  0  0  0
  -14.5020  -21.1607   23.3319 C   0  0  0  0  0  0  0  0  0  0  0  0
  -15.6080  -21.9835   23.5489 C   0  0  0  0  0  0  0  0  0  0  0  0
  -16.8163  -21.4371   23.9828 C   0  0  0  0  0  0  0  0  0  0  0  0
  -16.9569  -20.0628   24.2334 C   0  0  0  0  0  0  0  0  0  0  0  0
  -15.8305  -19.2544   24.0518 C   0  0  0  0  0  0  0  0  0  0  0  0
  -17.3211  -11.4254   21.1906 C   0  0  0  0  0  0  0  0  0  0  0  0
  -16.2175  -10.4123   20.7924 C   0  0  0  0  0  0  0  0  0  0  0  0
  -16.8707   -9.3005   19.9789 C   0  0  0  0  0  0  0  0  0  0  0  0
  -18.3276   -9.6859   19.9216 C   0  0  0  0  0  0  0  0  0  0  0  0
  -18.5405  -10.5806   21.0744 N   0  0  0  0  0  0  0  0  0  0  0  0
  -17.6786  -13.8191   21.8002 H   0  0  0  0  0  0  0  0  0  0  0  0
  -18.3722  -14.4407   24.2861 H   0  0  0  0  0  0  0  0  0  0  0  0
  -16.6867  -14.0457   24.6079 H   0  0  0  0  0  0  0  0  0  0  0  0
  -17.8319  -16.4342   23.0630 H   0  0  0  0  0  0  0  0  0  0  0  0
  -16.2078  -15.9285   22.7502 H   0  0  0  0  0  0  0  0  0  0  0  0
  -15.8702  -16.2472   25.4106 H   0  0  0  0  0  0  0  0  0  0  0  0
  -17.2968  -17.2897   25.2320 H   0  0  0  0  0  0  0  0  0  0  0  0
  -13.8005  -16.7330   23.8970 H   0  0  0  0  0  0  0  0  0  0  0  0
  -13.5579  -21.5702   22.9927 H   0  0  0  0  0  0  0  0  0  0  0  0
  -15.5251  -23.0529   23.3737 H   0  0  0  0  0  0  0  0  0  0  0  0
  -17.6714  -22.0941   24.1334 H   0  0  0  0  0  0  0  0  0  0  0  0
  -17.9070  -19.6580   24.5652 H   0  0  0  0  0  0  0  0  0  0  0  0
  -17.3951  -12.2414   20.4700 H   0  0  0  0  0  0  0  0  0  0  0  0
  -15.4439  -10.8741   20.1834 H   0  0  0  0  0  0  0  0  0  0  0  0
  -15.7252   -9.9823   21.6694 H   0  0  0  0  0  0  0  0  0  0  0  0
  -16.7549   -8.3467   20.5041 H   0  0  0  0  0  0  0  0  0  0  0  0
  -16.4307   -9.1974   18.9833 H   0  0  0  0  0  0  0  0  0  0  0  0
  -18.9831   -8.8112   19.9811 H   0  0  0  0  0  0  0  0  0  0  0  0
  -18.5825  -10.2160   19.0017 H   0  0  0  0  0  0  0  0  0  0  0  0
  -18.5723  -10.0016   21.9203 H   0  0  0  0  0  0  0  0  0  0  0  0
  1  2  2  0
  2  3  1  0
  3  4  1  0
  4  5  1  0
  5  6  1  0
  6  7  1  0
  7  8  1  0
  8  9  2  0
  9 10  1  0
 10 11  2  0
 11 12  1  0
 12 13  2  0
 13 14  1  0
 14 15  2  0
  2 16  1  0
 16 17  1  0
 17 18  1  0
 18 19  1  0
 19 20  1  0
 15  7  1  0
 20 16  1  0
 15 10  1  0
  3 21  1  0
  4 22  1  0
  4 23  1  0
  5 24  1  0
  5 25  1  0
  6 26  1  0
  6 27  1  0
  8 28  1  0
 11 29  1  0
 12 30  1  0
 13 31  1  0
 14 32  1  0
 16 33  1  0
 17 34  1  0
 17 35  1  0
 18 36  1  0
 18 37  1  0
 19 38  1  0
 19 39  1  0
 20 40  1  0
M  END
>  <Energy>  (1002) 
52.192732063608361

>  <compound_id>  (1002) 
9201

>  <target_id>  (1002) 
1

>  <reference_id>  (1002) 
94

>  <inspiration_ids>  (1002) 
[94, 95]

>  <energy_score>  (1002) 
-12.741448307189046

>  <distance_score>  (1002) 
14.737733935135886

>  <path>  (1002) 
/opt/xchem-fragalysis-2/maxwin/BulkDock/SCRATCH/511016/C9201-P94/C9201-P94.minimised.mol

>  <scratch_subdir>  (1002) 
/opt/xchem-fragalysis-2/maxwin/BulkDock/SCRATCH/511016/C9201-P94

>  <fragmenstein_runtime>  (1002) 
19.316999912261963

>  <fragmenstein_outcome>  (1002) 
too moved

>  <fragmenstein_mode>  (1002) 
expansion

>  <fragmenstein_error>  (1002) 


$$$$
C9201-P95
     RDKit          3D

 40 42  0  0  0  0  0  0  0  0999 V2000
   -9.3502  -15.6184   19.1075 O   0  0  0  0  0  0  0  0  0  0  0  0
  -10.4065  -14.9822   19.2468 C   0  0  0  0  0  0  0  0  0  0  0  0
  -11.8044  -15.5326   20.5455 N   0  0  0  0  0  0  0  0  0  0  0  0
  -11.8212  -16.9578   21.9587 C   0  0  0  0  0  0  0  0  0  0  0  0
  -11.7978  -17.0455   24.1018 C   0  0  0  0  0  0  0  0  0  0  0  0
  -11.1674  -17.0427   26.1602 C   0  0  0  0  0  0  0  0  0  0  0  0
  -11.8250  -17.9426   27.9057 N   0  0  0  0  0  0  0  0  0  0  0  0
  -11.0872  -17.6107   28.9243 C   0  0  0  0  0  0  0  0  0  0  0  0
  -10.7879  -18.8278   29.3632 N   0  0  0  0  0  0  0  0  0  0  0  0
  -11.4137  -20.5021   29.2506 C   0  0  0  0  0  0  0  0  0  0  0  0
  -11.0799  -21.7686   29.6374 C   0  0  0  0  0  0  0  0  0  0  0  0
  -10.9627  -22.6767   28.6131 C   0  0  0  0  0  0  0  0  0  0  0  0
  -11.6852  -22.4807   27.5280 C   0  0  0  0  0  0  0  0  0  0  0  0
  -12.2638  -21.2275   27.5437 C   0  0  0  0  0  0  0  0  0  0  0  0
  -12.3392  -19.7604   28.5390 C   0  0  0  0  0  0  0  0  0  0  0  0
  -10.5210  -13.1320   18.1813 C   0  0  0  0  0  0  0  0  0  0  0  0
  -10.9029  -12.3352   16.4287 C   0  0  0  0  0  0  0  0  0  0  0  0
   -9.2013  -12.1487   15.3828 C   0  0  0  0  0  0  0  0  0  0  0  0
   -8.2635  -12.4472   17.0863 C   0  0  0  0  0  0  0  0  0  0  0  0
   -9.1092  -12.5535   18.4008 N   0  0  0  0  0  0  0  0  0  0  0  0
  -12.6107  -14.9404   20.4407 H   0  0  0  0  0  0  0  0  0  0  0  0
  -11.2661  -17.8194   21.5579 H   0  0  0  0  0  0  0  0  0  0  0  0
  -12.8868  -17.2026   21.8347 H   0  0  0  0  0  0  0  0  0  0  0  0
  -12.0669  -18.0897   24.0088 H   0  0  0  0  0  0  0  0  0  0  0  0
  -12.7264  -16.4748   24.2579 H   0  0  0  0  0  0  0  0  0  0  0  0
  -10.0878  -17.1017   26.3632 H   0  0  0  0  0  0  0  0  0  0  0  0
  -11.5436  -16.0722   26.5493 H   0  0  0  0  0  0  0  0  0  0  0  0
  -10.6659  -16.6385   29.1212 H   0  0  0  0  0  0  0  0  0  0  0  0
  -10.6840  -21.8440   30.6103 H   0  0  0  0  0  0  0  0  0  0  0  0
  -10.3161  -23.5317   28.5914 H   0  0  0  0  0  0  0  0  0  0  0  0
  -11.6935  -23.1422   26.6752 H   0  0  0  0  0  0  0  0  0  0  0  0
  -12.2822  -21.0599   26.4483 H   0  0  0  0  0  0  0  0  0  0  0  0
  -11.0646  -12.3111   18.5705 H   0  0  0  0  0  0  0  0  0  0  0  0
  -11.5245  -11.4750   16.4844 H   0  0  0  0  0  0  0  0  0  0  0  0
  -11.4344  -12.9774   15.7620 H   0  0  0  0  0  0  0  0  0  0  0  0
   -9.0744  -11.2123   14.8101 H   0  0  0  0  0  0  0  0  0  0  0  0
   -9.2088  -12.9937   14.6617 H   0  0  0  0  0  0  0  0  0  0  0  0
   -7.6878  -13.3741   17.0556 H   0  0  0  0  0  0  0  0  0  0  0  0
   -7.5166  -11.6838   17.3637 H   0  0  0  0  0  0  0  0  0  0  0  0
   -8.5824  -13.0280   19.1489 H   0  0  0  0  0  0  0  0  0  0  0  0
  1  2  2  0
  2  3  1  0
  3  4  1  0
  4  5  1  0
  5  6  1  0
  6  7  1  0
  7  8  1  0
  8  9  2  0
  9 10  1  0
 10 11  2  0
 11 12  1  0
 12 13  2  0
 13 14  1  0
 14 15  2  0
  2 16  1  0
 16 17  1  0
 17 18  1  0
 18 19  1  0
 19 20  1  0
 15  7  1  0
 20 16  1  0
 15 10  1  0
  3 21  1  0
  4 22  1  0
  4 23  1  0
  5 24  1  0
  5 25  1  0
  6 26  1  0
  6 27  1  0
  8 28  1  0
 11 29  1  0
 12 30  1  0
 13 31  1  0
 14 32  1  0
 16 33  1  0
 17 34  1  0
 17 35  1  0
 18 36  1  0
 18 37  1  0
 19 38  1  0
 19 39  1  0
 20 40  1  0
M  END
>  <Energy>  (1003) 
1281.7715139737554

>  <compound_id>  (1003) 
9201

>  <target_id>  (1003) 
1

>  <reference_id>  (1003) 
95

>  <inspiration_ids>  (1003) 
[94, 95]

>  <energy_score>  (1003) 
1216.8373336029392

>  <distance_score>  (1003) 
11.31204379594609

>  <path>  (1003) 
/opt/xchem-fragalysis-2/maxwin/BulkDock/SCRATCH/511016/C9201-P95/C9201-P95.minimised.mol

>  <scratch_subdir>  (1003) 
/opt/xchem-fragalysis-2/maxwin/BulkDock/SCRATCH/511016/C9201-P95

>  <fragmenstein_runtime>  (1003) 
21.250850439071655

>  <fragmenstein_outcome>  (1003) 
too moved

>  <fragmenstein_mode>  (1003) 
expansion

>  <fragmenstein_error>  (1003) 


$$$$
C9202-P94
     RDKit          3D

 47 50  0  0  0  0  0  0  0  0999 V2000
  -13.4336  -17.8707   15.2893 O   0  0  0  0  0  0  0  0  0  0  0  0
  -14.2310  -17.2104   15.8903 C   0  0  0  0  0  0  0  0  0  0  0  0
  -14.7748  -17.3685   17.2562 N   0  0  0  0  0  0  0  0  0  0  0  0
  -14.5747  -18.4634   18.2790 C   0  0  0  0  0  0  0  0  0  0  0  0
  -14.1280  -18.2524   19.8084 C   0  0  0  0  0  0  0  0  0  0  0  0
  -14.5875  -19.4375   20.7698 C   0  0  0  0  0  0  0  0  0  0  0  0
  -13.7462  -19.9886   21.8307 N   0  0  0  0  0  0  0  0  0  0  0  0
  -12.6017  -19.4741   22.3702 C   0  0  0  0  0  0  0  0  0  0  0  0
  -12.0017  -20.3142   23.1893 N   0  0  0  0  0  0  0  0  0  0  0  0
  -12.8333  -21.4170   23.2414 C   0  0  0  0  0  0  0  0  0  0  0  0
  -12.7116  -22.6356   23.9354 C   0  0  0  0  0  0  0  0  0  0  0  0
  -13.7448  -23.5765   23.8925 C   0  0  0  0  0  0  0  0  0  0  0  0
  -14.8858  -23.3200   23.1445 C   0  0  0  0  0  0  0  0  0  0  0  0
  -15.0165  -22.1366   22.4054 C   0  0  0  0  0  0  0  0  0  0  0  0
  -13.9685  -21.2053   22.4609 C   0  0  0  0  0  0  0  0  0  0  0  0
  -14.8761  -16.0213   14.9760 C   0  0  0  0  0  0  0  0  0  0  0  0
  -13.9780  -14.8837   14.3179 C   0  0  0  0  0  0  0  0  0  0  0  0
  -12.9640  -15.3461   13.2693 C   0  0  0  0  0  0  0  0  0  0  0  0
  -13.5418  -14.9827   11.9131 C   0  0  0  0  0  0  0  0  0  0  0  0
  -14.4361  -13.7978   12.1784 C   0  0  0  0  0  0  0  0  0  0  0  0
  -14.8006  -13.8652   13.5955 N   0  0  0  0  0  0  0  0  0  0  0  0
  -15.9295  -16.5779   14.0001 C   0  0  0  0  0  0  0  0  0  0  0  0
  -16.3713  -15.7312   15.1461 C   0  0  0  0  0  0  0  0  0  0  0  0
  -15.3710  -16.5773   17.4700 H   0  0  0  0  0  0  0  0  0  0  0  0
  -13.8792  -19.1794   17.8258 H   0  0  0  0  0  0  0  0  0  0  0  0
  -15.5557  -18.9532   18.3036 H   0  0  0  0  0  0  0  0  0  0  0  0
  -14.5678  -17.3197   20.1759 H   0  0  0  0  0  0  0  0  0  0  0  0
  -13.0397  -18.1330   19.8275 H   0  0  0  0  0  0  0  0  0  0  0  0
  -15.5204  -19.1330   21.2604 H   0  0  0  0  0  0  0  0  0  0  0  0
  -14.8241  -20.2966   20.1290 H   0  0  0  0  0  0  0  0  0  0  0  0
  -12.2447  -18.4900   22.1136 H   0  0  0  0  0  0  0  0  0  0  0  0
  -11.8578  -22.8320   24.5633 H   0  0  0  0  0  0  0  0  0  0  0  0
  -13.6599  -24.4946   24.4666 H   0  0  0  0  0  0  0  0  0  0  0  0
  -15.6887  -24.0540   23.1237 H   0  0  0  0  0  0  0  0  0  0  0  0
  -15.9043  -21.9605   21.8071 H   0  0  0  0  0  0  0  0  0  0  0  0
  -13.4652  -14.3921   15.1431 H   0  0  0  0  0  0  0  0  0  0  0  0
  -12.0244  -14.7973   13.3919 H   0  0  0  0  0  0  0  0  0  0  0  0
  -12.7303  -16.4121   13.3245 H   0  0  0  0  0  0  0  0  0  0  0  0
  -12.7603  -14.7622   11.1795 H   0  0  0  0  0  0  0  0  0  0  0  0
  -14.1318  -15.8232   11.5292 H   0  0  0  0  0  0  0  0  0  0  0  0
  -13.9337  -12.8597   11.9290 H   0  0  0  0  0  0  0  0  0  0  0  0
  -15.3369  -13.8403   11.5573 H   0  0  0  0  0  0  0  0  0  0  0  0
  -14.6857  -12.9581   14.0452 H   0  0  0  0  0  0  0  0  0  0  0  0
  -16.0257  -16.1624   13.0051 H   0  0  0  0  0  0  0  0  0  0  0  0
  -16.1415  -17.6414   14.0346 H   0  0  0  0  0  0  0  0  0  0  0  0
  -16.7799  -14.7605   14.8943 H   0  0  0  0  0  0  0  0  0  0  0  0
  -16.9310  -16.2248   15.9311 H   0  0  0  0  0  0  0  0  0  0  0  0
  1  2  2  0
  2  3  1  0
  3  4  1  0
  4  5  1  0
  5  6  1  0
  6  7  1  0
  7  8  1  0
  8  9  2  0
  9 10  1  0
 10 11  2  0
 11 12  1  0
 12 13  2  0
 13 14  1  0
 14 15  2  0
  2 16  1  0
 16 17  1  0
 17 18  1  0
 18 19  1  0
 19 20  1  0
 20 21  1  0
 16 22  1  0
 22 23  1  0
 15  7  1  0
 23 16  1  0
 15 10  1  0
 21 17  1  0
  3 24  1  0
  4 25  1  0
  4 26  1  0
  5 27  1  0
  5 28  1  0
  6 29  1  0
  6 30  1  0
  8 31  1  0
 11 32  1  0
 12 33  1  0
 13 34  1  0
 14 35  1  0
 17 36  1  0
 18 37  1  0
 18 38  1  0
 19 39  1  0
 19 40  1  0
 20 41  1  0
 20 42  1  0
 21 43  1  0
 22 44  1  0
 22 45  1  0
 23 46  1  0
 23 47  1  0
M  END
>  <Energy>  (1004) 
45.974568633620905

>  <compound_id>  (1004) 
9202

>  <target_id>  (1004) 
1

>  <reference_id>  (1004) 
94

>  <inspiration_ids>  (1004) 
[94, 95]

>  <energy_score>  (1004) 
-3.6791946345615543

>  <distance_score>  (1004) 
14.33447412516619

>  <path>  (1004) 
/opt/xchem-fragalysis-2/maxwin/BulkDock/SCRATCH/511016/C9202-P94/C9202-P94.minimised.mol

>  <scratch_subdir>  (1004) 
/opt/xchem-fragalysis-2/maxwin/BulkDock/SCRATCH/511016/C9202-P94

>  <fragmenstein_runtime>  (1004) 
32.775506258010864

>  <fragmenstein_outcome>  (1004) 
too moved

>  <fragmenstein_mode>  (1004) 
expansion

>  <fragmenstein_error>  (1004) 


$$$$
C9202-P95
     RDKit          3D

 47 50  0  0  0  0  0  0  0  0999 V2000
   -9.9368  -10.7027   14.6921 O   0  0  0  0  0  0  0  0  0  0  0  0
  -11.0331  -10.5893   15.2886 C   0  0  0  0  0  0  0  0  0  0  0  0
  -11.5680  -11.6040   16.9078 N   0  0  0  0  0  0  0  0  0  0  0  0
  -10.5605  -12.9222   18.1244 C   0  0  0  0  0  0  0  0  0  0  0  0
  -10.5174  -14.8641   19.2352 C   0  0  0  0  0  0  0  0  0  0  0  0
  -11.6236  -16.0318   20.8784 C   0  0  0  0  0  0  0  0  0  0  0  0
  -11.7474  -16.7932   22.8698 N   0  0  0  0  0  0  0  0  0  0  0  0
  -10.4752  -17.1271   24.1267 C   0  0  0  0  0  0  0  0  0  0  0  0
  -10.2558  -16.6795   25.4078 N   0  0  0  0  0  0  0  0  0  0  0  0
  -11.1901  -17.3473   25.9402 C   0  0  0  0  0  0  0  0  0  0  0  0
  -11.6938  -18.0061   27.8088 C   0  0  0  0  0  0  0  0  0  0  0  0
  -12.2948  -19.9333   28.1834 C   0  0  0  0  0  0  0  0  0  0  0  0
  -12.1166  -20.8577   26.4186 C   0  0  0  0  0  0  0  0  0  0  0  0
  -11.9242  -20.0874   24.6046 C   0  0  0  0  0  0  0  0  0  0  0  0
  -11.8476  -18.1204   24.2619 C   0  0  0  0  0  0  0  0  0  0  0  0
  -12.1495   -9.0110   14.4193 C   0  0  0  0  0  0  0  0  0  0  0  0
  -11.7905   -6.9932   14.6622 C   0  0  0  0  0  0  0  0  0  0  0  0
  -10.4463   -5.9520   14.9193 C   0  0  0  0  0  0  0  0  0  0  0  0
  -10.5024   -4.4651   14.8496 C   0  0  0  0  0  0  0  0  0  0  0  0
  -11.8392   -4.2618   15.4277 C   0  0  0  0  0  0  0  0  0  0  0  0
  -12.5702   -5.5597   15.3678 N   0  0  0  0  0  0  0  0  0  0  0  0
  -13.6708   -9.5201   14.2625 C   0  0  0  0  0  0  0  0  0  0  0  0
  -12.9562   -9.1037   13.0557 C   0  0  0  0  0  0  0  0  0  0  0  0
  -12.5419  -11.3910   17.1455 H   0  0  0  0  0  0  0  0  0  0  0  0
  -10.8590  -13.2511   17.1932 H   0  0  0  0  0  0  0  0  0  0  0  0
   -9.5755  -12.4717   18.2451 H   0  0  0  0  0  0  0  0  0  0  0  0
   -9.4330  -14.4701   19.4778 H   0  0  0  0  0  0  0  0  0  0  0  0
   -9.8672  -15.7181   18.8190 H   0  0  0  0  0  0  0  0  0  0  0  0
  -12.6838  -15.7701   20.8887 H   0  0  0  0  0  0  0  0  0  0  0  0
  -11.8289  -17.0255   20.3912 H   0  0  0  0  0  0  0  0  0  0  0  0
   -9.8061  -17.9957   23.8934 H   0  0  0  0  0  0  0  0  0  0  0  0
  -11.2115  -17.4308   28.6048 H   0  0  0  0  0  0  0  0  0  0  0  0
  -12.3286  -20.5436   29.0800 H   0  0  0  0  0  0  0  0  0  0  0  0
  -12.1515  -21.9593   26.4731 H   0  0  0  0  0  0  0  0  0  0  0  0
  -12.0657  -20.6999   23.7116 H   0  0  0  0  0  0  0  0  0  0  0  0
  -12.2604   -6.7281   13.7043 H   0  0  0  0  0  0  0  0  0  0  0  0
  -10.3070   -5.9110   16.0249 H   0  0  0  0  0  0  0  0  0  0  0  0
   -9.4969   -6.2195   14.5250 H   0  0  0  0  0  0  0  0  0  0  0  0
   -9.7418   -4.0150   15.5055 H   0  0  0  0  0  0  0  0  0  0  0  0
  -10.2330   -4.0895   13.8833 H   0  0  0  0  0  0  0  0  0  0  0  0
  -12.4109   -3.4000   15.0776 H   0  0  0  0  0  0  0  0  0  0  0  0
  -11.7063   -4.0172   16.4942 H   0  0  0  0  0  0  0  0  0  0  0  0
  -12.6317   -5.6818   16.4078 H   0  0  0  0  0  0  0  0  0  0  0  0
  -14.5884   -8.9720   14.4072 H   0  0  0  0  0  0  0  0  0  0  0  0
  -13.8986  -10.5620   14.4523 H   0  0  0  0  0  0  0  0  0  0  0  0
  -12.7553   -9.8119   12.2602 H   0  0  0  0  0  0  0  0  0  0  0  0
  -13.3938   -8.2004   12.6319 H   0  0  0  0  0  0  0  0  0  0  0  0
  1  2  2  0
  2  3  1  0
  3  4  1  0
  4  5  1  0
  5  6  1  0
  6  7  1  0
  7  8  1  0
  8  9  2  0
  9 10  1  0
 10 11  2  0
 11 12  1  0
 12 13  2  0
 13 14  1  0
 14 15  2  0
  2 16  1  0
 16 17  1  0
 17 18  1  0
 18 19  1  0
 19 20  1  0
 20 21  1  0
 16 22  1  0
 22 23  1  0
 15  7  1  0
 23 16  1  0
 15 10  1  0
 21 17  1  0
  3 24  1  0
  4 25  1  0
  4 26  1  0
  5 27  1  0
  5 28  1  0
  6 29  1  0
  6 30  1  0
  8 31  1  0
 11 32  1  0
 12 33  1  0
 13 34  1  0
 14 35  1  0
 17 36  1  0
 18 37  1  0
 18 38  1  0
 19 39  1  0
 19 40  1  0
 20 41  1  0
 20 42  1  0
 21 43  1  0
 22 44  1  0
 22 45  1  0
 23 46  1  0
 23 47  1  0
M  END
>  <Energy>  (1005) 
2229.3341609872132

>  <compound_id>  (1005) 
9202

>  <target_id>  (1005) 
1

>  <reference_id>  (1005) 
95

>  <inspiration_ids>  (1005) 
[94, 95]

>  <energy_score>  (1005) 
2179.6803977190525

>  <distance_score>  (1005) 
11.252084427209049

>  <path>  (1005) 
/opt/xchem-fragalysis-2/maxwin/BulkDock/SCRATCH/511016/C9202-P95/C9202-P95.minimised.mol

>  <scratch_subdir>  (1005) 
/opt/xchem-fragalysis-2/maxwin/BulkDock/SCRATCH/511016/C9202-P95

>  <fragmenstein_runtime>  (1005) 
28.205764055252075

>  <fragmenstein_outcome>  (1005) 
too moved

>  <fragmenstein_mode>  (1005) 
expansion

>  <fragmenstein_error>  (1005) 


$$$$
C9203-P94
     RDKit          3D

 43 45  0  0  0  0  0  0  0  0999 V2000
  -19.8218  -20.2022   25.4932 C   0  0  0  0  0  0  0  0  0  0  0  0
  -18.7195  -21.1076   25.9349 C   0  0  0  0  0  0  0  0  0  0  0  0
  -18.7392  -21.7684   27.2498 N   0  0  0  0  0  0  0  0  0  0  0  0
  -17.6407  -22.9712   27.9053 C   0  0  0  0  0  0  0  0  0  0  0  0
  -15.9498  -22.4522   29.0215 C   0  0  0  0  0  0  0  0  0  0  0  0
  -14.0301  -22.4333   27.9667 C   0  0  0  0  0  0  0  0  0  0  0  0
  -14.1080  -23.3681   26.3403 C   0  0  0  0  0  0  0  0  0  0  0  0
  -15.6864  -23.6819   25.4870 C   0  0  0  0  0  0  0  0  0  0  0  0
  -17.2205  -22.7984   25.9544 C   0  0  0  0  0  0  0  0  0  0  0  0
  -17.3804  -21.1089   24.9977 N   0  0  0  0  0  0  0  0  0  0  0  0
  -17.0506  -19.8143   23.4097 C   0  0  0  0  0  0  0  0  0  0  0  0
  -16.4303  -18.1288   22.0801 C   0  0  0  0  0  0  0  0  0  0  0  0
  -16.3995  -16.4867   20.5582 C   0  0  0  0  0  0  0  0  0  0  0  0
  -15.5574  -15.3773   18.9318 N   0  0  0  0  0  0  0  0  0  0  0  0
  -15.1308  -13.3962   18.6945 C   0  0  0  0  0  0  0  0  0  0  0  0
  -15.4787  -12.4340   19.6316 O   0  0  0  0  0  0  0  0  0  0  0  0
  -14.1226  -12.5717   17.4022 C   0  0  0  0  0  0  0  0  0  0  0  0
  -12.9492  -11.3545   16.4628 C   0  0  0  0  0  0  0  0  0  0  0  0
  -13.1409  -10.1604   15.3629 C   0  0  0  0  0  0  0  0  0  0  0  0
  -14.4546  -10.2533   15.7394 C   0  0  0  0  0  0  0  0  0  0  0  0
  -13.8921  -10.8383   17.5319 N   0  0  0  0  0  0  0  0  0  0  0  0
  -20.1158  -20.4338   24.4655 H   0  0  0  0  0  0  0  0  0  0  0  0
  -20.6971  -20.3251   26.1377 H   0  0  0  0  0  0  0  0  0  0  0  0
  -19.4983  -19.1586   25.5429 H   0  0  0  0  0  0  0  0  0  0  0  0
  -16.0900  -22.3707   30.1063 H   0  0  0  0  0  0  0  0  0  0  0  0
  -13.0369  -22.3724   28.5131 H   0  0  0  0  0  0  0  0  0  0  0  0
  -13.1712  -23.6362   25.8520 H   0  0  0  0  0  0  0  0  0  0  0  0
  -15.5584  -23.7325   24.3956 H   0  0  0  0  0  0  0  0  0  0  0  0
  -17.6479  -20.4764   22.7645 H   0  0  0  0  0  0  0  0  0  0  0  0
  -16.0302  -20.2356   23.4861 H   0  0  0  0  0  0  0  0  0  0  0  0
  -15.7221  -18.7522   21.5092 H   0  0  0  0  0  0  0  0  0  0  0  0
  -15.8550  -17.5835   22.8446 H   0  0  0  0  0  0  0  0  0  0  0  0
  -17.0441  -17.0483   19.8638 H   0  0  0  0  0  0  0  0  0  0  0  0
  -17.0402  -15.7261   21.0240 H   0  0  0  0  0  0  0  0  0  0  0  0
  -15.2868  -15.8720   18.0923 H   0  0  0  0  0  0  0  0  0  0  0  0
  -13.9774  -13.6055   16.4395 H   0  0  0  0  0  0  0  0  0  0  0  0
  -13.3498  -12.0776   15.7802 H   0  0  0  0  0  0  0  0  0  0  0  0
  -11.8520  -11.6072   16.5285 H   0  0  0  0  0  0  0  0  0  0  0  0
  -12.9231   -9.1404   15.2727 H   0  0  0  0  0  0  0  0  0  0  0  0
  -12.8201  -10.1765   14.3477 H   0  0  0  0  0  0  0  0  0  0  0  0
  -15.3659   -9.6243   15.6957 H   0  0  0  0  0  0  0  0  0  0  0  0
  -14.8340  -11.0222   15.1459 H   0  0  0  0  0  0  0  0  0  0  0  0
  -14.6446  -10.4239   18.1017 H   0  0  0  0  0  0  0  0  0  0  0  0
  1  2  1  0
  2  3  2  0
  3  4  1  0
  4  5  2  0
  5  6  1  0
  6  7  2  0
  7  8  1  0
  8  9  2  0
  9 10  1  0
 10 11  1  0
 11 12  1  0
 12 13  1  0
 13 14  1  0
 14 15  1  0
 15 16  2  0
 15 17  1  0
 17 18  1  0
 18 19  1  0
 19 20  1  0
 20 21  1  0
 10  2  1  0
 21 17  1  0
  9  4  1  0
  1 22  1  0
  1 23  1  0
  1 24  1  0
  5 25  1  0
  6 26  1  0
  7 27  1  0
  8 28  1  0
 11 29  1  0
 11 30  1  0
 12 31  1  0
 12 32  1  0
 13 33  1  0
 13 34  1  0
 14 35  1  0
 17 36  1  0
 18 37  1  0
 18 38  1  0
 19 39  1  0
 19 40  1  0
 20 41  1  0
 20 42  1  0
 21 43  1  0
M  END
>  <Energy>  (1006) 
2357.0646074264014

>  <compound_id>  (1006) 
9203

>  <target_id>  (1006) 
1

>  <reference_id>  (1006) 
94

>  <inspiration_ids>  (1006) 
[94, 95]

>  <energy_score>  (1006) 
2296.0619189428794

>  <distance_score>  (1006) 
11.79509358834059

>  <path>  (1006) 
/opt/xchem-fragalysis-2/maxwin/BulkDock/SCRATCH/511016/C9203-P94/C9203-P94.minimised.mol

>  <scratch_subdir>  (1006) 
/opt/xchem-fragalysis-2/maxwin/BulkDock/SCRATCH/511016/C9203-P94

>  <fragmenstein_runtime>  (1006) 
21.089394330978394

>  <fragmenstein_outcome>  (1006) 
too moved

>  <fragmenstein_mode>  (1006) 
expansion

>  <fragmenstein_error>  (1006) 


$$$$
C9203-P95
     RDKit          3D

 43 45  0  0  0  0  0  0  0  0999 V2000
   -5.8432  -16.8056   30.5081 C   0  0  0  0  0  0  0  0  0  0  0  0
   -5.4417  -17.9345   29.6307 C   0  0  0  0  0  0  0  0  0  0  0  0
   -4.6072  -18.8870   29.9882 N   0  0  0  0  0  0  0  0  0  0  0  0
   -4.5319  -19.7371   28.9224 C   0  0  0  0  0  0  0  0  0  0  0  0
   -3.8110  -20.9376   28.7969 C   0  0  0  0  0  0  0  0  0  0  0  0
   -3.9381  -21.6891   27.6255 C   0  0  0  0  0  0  0  0  0  0  0  0
   -4.7431  -21.2362   26.5847 C   0  0  0  0  0  0  0  0  0  0  0  0
   -5.4325  -20.0217   26.6804 C   0  0  0  0  0  0  0  0  0  0  0  0
   -5.3269  -19.2897   27.8675 C   0  0  0  0  0  0  0  0  0  0  0  0
   -5.8566  -18.0990   28.3185 N   0  0  0  0  0  0  0  0  0  0  0  0
   -6.7750  -17.2194   27.6193 C   0  0  0  0  0  0  0  0  0  0  0  0
   -6.4601  -16.7895   26.1610 C   0  0  0  0  0  0  0  0  0  0  0  0
   -5.1992  -15.9187   25.9176 C   0  0  0  0  0  0  0  0  0  0  0  0
   -5.0622  -15.4307   24.5241 N   0  0  0  0  0  0  0  0  0  0  0  0
   -3.8925  -15.3354   23.6548 C   0  0  0  0  0  0  0  0  0  0  0  0
   -2.7629  -15.7018   23.8224 O   0  0  0  0  0  0  0  0  0  0  0  0
   -4.2830  -14.7064   22.2427 C   0  0  0  0  0  0  0  0  0  0  0  0
   -3.1725  -14.6305   21.1897 C   0  0  0  0  0  0  0  0  0  0  0  0
   -3.6064  -13.5504   20.2079 C   0  0  0  0  0  0  0  0  0  0  0  0
   -4.6228  -12.7361   20.9781 C   0  0  0  0  0  0  0  0  0  0  0  0
   -4.6813  -13.2729   22.3615 N   0  0  0  0  0  0  0  0  0  0  0  0
   -5.4673  -16.9594   31.5247 H   0  0  0  0  0  0  0  0  0  0  0  0
   -5.4298  -15.8636   30.1351 H   0  0  0  0  0  0  0  0  0  0  0  0
   -6.9308  -16.7173   30.5649 H   0  0  0  0  0  0  0  0  0  0  0  0
   -3.1933  -21.2770   29.6208 H   0  0  0  0  0  0  0  0  0  0  0  0
   -3.3888  -22.6221   27.5277 H   0  0  0  0  0  0  0  0  0  0  0  0
   -4.8099  -21.8194   25.6685 H   0  0  0  0  0  0  0  0  0  0  0  0
   -5.9976  -19.6657   25.8350 H   0  0  0  0  0  0  0  0  0  0  0  0
   -7.7456  -17.7274   27.6429 H   0  0  0  0  0  0  0  0  0  0  0  0
   -6.8887  -16.3043   28.2091 H   0  0  0  0  0  0  0  0  0  0  0  0
   -7.3277  -16.2212   25.7998 H   0  0  0  0  0  0  0  0  0  0  0  0
   -6.3854  -17.6535   25.5002 H   0  0  0  0  0  0  0  0  0  0  0  0
   -4.2913  -16.4777   26.1654 H   0  0  0  0  0  0  0  0  0  0  0  0
   -5.2347  -15.0272   26.5519 H   0  0  0  0  0  0  0  0  0  0  0  0
   -5.8357  -14.9399   24.0926 H   0  0  0  0  0  0  0  0  0  0  0  0
   -5.1050  -15.3086   21.8452 H   0  0  0  0  0  0  0  0  0  0  0  0
   -2.2174  -14.3481   21.6503 H   0  0  0  0  0  0  0  0  0  0  0  0
   -3.0202  -15.5931   20.6907 H   0  0  0  0  0  0  0  0  0  0  0  0
   -4.0526  -13.9925   19.3131 H   0  0  0  0  0  0  0  0  0  0  0  0
   -2.7488  -12.9474   19.8919 H   0  0  0  0  0  0  0  0  0  0  0  0
   -5.6081  -12.8164   20.5148 H   0  0  0  0  0  0  0  0  0  0  0  0
   -4.3210  -11.6871   21.0030 H   0  0  0  0  0  0  0  0  0  0  0  0
   -3.9321  -12.8148   22.8902 H   0  0  0  0  0  0  0  0  0  0  0  0
  1  2  1  0
  2  3  2  0
  3  4  1  0
  4  5  2  0
  5  6  1  0
  6  7  2  0
  7  8  1  0
  8  9  2  0
  9 10  1  0
 10 11  1  0
 11 12  1  0
 12 13  1  0
 13 14  1  0
 14 15  1  0
 15 16  2  0
 15 17  1  0
 17 18  1  0
 18 19  1  0
 19 20  1  0
 20 21  1  0
 10  2  1  0
 21 17  1  0
  9  4  1  0
  1 22  1  0
  1 23  1  0
  1 24  1  0
  5 25  1  0
  6 26  1  0
  7 27  1  0
  8 28  1  0
 11 29  1  0
 11 30  1  0
 12 31  1  0
 12 32  1  0
 13 33  1  0
 13 34  1  0
 14 35  1  0
 17 36  1  0
 18 37  1  0
 18 38  1  0
 19 39  1  0
 19 40  1  0
 20 41  1  0
 20 42  1  0
 21 43  1  0
M  END
>  <Energy>  (1007) 
46.864992886837015

>  <compound_id>  (1007) 
9203

>  <target_id>  (1007) 
1

>  <reference_id>  (1007) 
95

>  <inspiration_ids>  (1007) 
[94, 95]

>  <energy_score>  (1007) 
-14.137695596687536

>  <distance_score>  (1007) 
14.347404917076904

>  <path>  (1007) 
/opt/xchem-fragalysis-2/maxwin/BulkDock/SCRATCH/511016/C9203-P95/C9203-P95.minimised.mol

>  <scratch_subdir>  (1007) 
/opt/xchem-fragalysis-2/maxwin/BulkDock/SCRATCH/511016/C9203-P95

>  <fragmenstein_runtime>  (1007) 
33.192049980163574

>  <fragmenstein_outcome>  (1007) 
too moved

>  <fragmenstein_mode>  (1007) 
expansion

>  <fragmenstein_error>  (1007) 


$$$$
C9210-P94
     RDKit          3D

 45 48  0  0  0  0  0  0  0  0999 V2000
   -7.9003  -22.3404   20.6390 C   0  0  0  0  0  0  0  0  0  0  0  0
   -8.4110  -22.1620   19.3551 C   0  0  0  0  0  0  0  0  0  0  0  0
   -7.9259  -21.1545   18.4922 C   0  0  0  0  0  0  0  0  0  0  0  0
   -6.9164  -20.2908   18.9613 C   0  0  0  0  0  0  0  0  0  0  0  0
   -6.3920  -20.4975   20.2535 C   0  0  0  0  0  0  0  0  0  0  0  0
   -6.8808  -21.5143   21.0977 C   0  0  0  0  0  0  0  0  0  0  0  0
   -5.3809  -19.6315   20.5181 N   0  0  0  0  0  0  0  0  0  0  0  0
   -5.3079  -18.8699   19.4526 C   0  0  0  0  0  0  0  0  0  0  0  0
   -6.2296  -19.1592   18.4436 N   0  0  0  0  0  0  0  0  0  0  0  0
   -6.3716  -18.3201   17.2033 C   0  0  0  0  0  0  0  0  0  0  0  0
   -5.3512  -17.4177   16.8178 C   0  0  0  0  0  0  0  0  0  0  0  0
   -5.4757  -16.4223   15.7413 C   0  0  0  0  0  0  0  0  0  0  0  0
   -6.6253  -16.2702   14.9430 C   0  0  0  0  0  0  0  0  0  0  0  0
   -6.7062  -15.2261   13.7018 C   0  0  0  0  0  0  0  0  0  0  0  0
   -7.1601  -13.8085   13.9277 N   0  0  0  0  0  0  0  0  0  0  0  0
   -6.5654  -12.7785   12.9973 C   0  0  0  0  0  0  0  0  0  0  0  0
   -7.2918  -12.4161   11.6603 C   0  0  0  0  0  0  0  0  0  0  0  0
   -6.5096  -11.3713   10.8375 C   0  0  0  0  0  0  0  0  0  0  0  0
   -7.5706  -10.4473   10.2693 C   0  0  0  0  0  0  0  0  0  0  0  0
   -8.5993  -10.4432   11.3756 C   0  0  0  0  0  0  0  0  0  0  0  0
   -8.6355  -11.8362   11.8204 N   0  0  0  0  0  0  0  0  0  0  0  0
   -7.6085  -17.2433   15.2600 C   0  0  0  0  0  0  0  0  0  0  0  0
   -7.4861  -18.2440   16.3474 C   0  0  0  0  0  0  0  0  0  0  0  0
   -8.2857  -23.1179   21.2862 H   0  0  0  0  0  0  0  0  0  0  0  0
   -9.2077  -22.8157   19.0053 H   0  0  0  0  0  0  0  0  0  0  0  0
   -8.3452  -21.0448   17.4982 H   0  0  0  0  0  0  0  0  0  0  0  0
   -6.4601  -21.6337   22.0892 H   0  0  0  0  0  0  0  0  0  0  0  0
   -4.6085  -18.0550   19.3633 H   0  0  0  0  0  0  0  0  0  0  0  0
   -4.3942  -17.4100   17.3384 H   0  0  0  0  0  0  0  0  0  0  0  0
   -4.6169  -15.7753   15.5590 H   0  0  0  0  0  0  0  0  0  0  0  0
   -7.3638  -15.6797   12.9513 H   0  0  0  0  0  0  0  0  0  0  0  0
   -5.6938  -15.2252   13.2788 H   0  0  0  0  0  0  0  0  0  0  0  0
   -6.8614  -13.5673   14.8735 H   0  0  0  0  0  0  0  0  0  0  0  0
   -6.5099  -11.8541   13.5888 H   0  0  0  0  0  0  0  0  0  0  0  0
   -5.5234  -13.0481   12.7848 H   0  0  0  0  0  0  0  0  0  0  0  0
   -7.3945  -13.3339   11.0690 H   0  0  0  0  0  0  0  0  0  0  0  0
   -5.8307  -10.7954   11.4786 H   0  0  0  0  0  0  0  0  0  0  0  0
   -5.9143  -11.8365   10.0454 H   0  0  0  0  0  0  0  0  0  0  0  0
   -7.1780   -9.4525   10.0434 H   0  0  0  0  0  0  0  0  0  0  0  0
   -7.9916  -10.8743    9.3517 H   0  0  0  0  0  0  0  0  0  0  0  0
   -8.2767   -9.8043   12.2041 H   0  0  0  0  0  0  0  0  0  0  0  0
   -9.5812  -10.1174   11.0263 H   0  0  0  0  0  0  0  0  0  0  0  0
   -8.9538  -11.9220   12.7860 H   0  0  0  0  0  0  0  0  0  0  0  0
   -8.5264  -17.2636   14.6697 H   0  0  0  0  0  0  0  0  0  0  0  0
   -8.3374  -18.9057   16.4899 H   0  0  0  0  0  0  0  0  0  0  0  0
  1  2  2  0
  2  3  1  0
  3  4  2  0
  4  5  1  0
  5  6  2  0
  5  7  1  0
  7  8  2  0
  8  9  1  0
  9 10  1  0
 10 11  2  0
 11 12  1  0
 12 13  2  0
 13 14  1  0
 14 15  1  0
 15 16  1  0
 16 17  1  0
 17 18  1  0
 18 19  1  0
 19 20  1  0
 20 21  1  0
 13 22  1  0
 22 23  2  0
  6  1  1  0
 23 10  1  0
  9  4  1  0
 21 17  1  0
  1 24  1  0
  2 25  1  0
  3 26  1  0
  6 27  1  0
  8 28  1  0
 11 29  1  0
 12 30  1  0
 14 31  1  0
 14 32  1  0
 15 33  1  0
 16 34  1  0
 16 35  1  0
 17 36  1  0
 18 37  1  0
 18 38  1  0
 19 39  1  0
 19 40  1  0
 20 41  1  0
 20 42  1  0
 21 43  1  0
 22 44  1  0
 23 45  1  0
M  END
>  <Energy>  (1008) 
112.72608643149869

>  <compound_id>  (1008) 
9210

>  <target_id>  (1008) 
1

>  <reference_id>  (1008) 
94

>  <inspiration_ids>  (1008) 
[94, 95]

>  <energy_score>  (1008) 
-9.941579977318042

>  <distance_score>  (1008) 
13.809259658019185

>  <path>  (1008) 
/opt/xchem-fragalysis-2/maxwin/BulkDock/SCRATCH/511016/C9210-P94/C9210-P94.minimised.mol

>  <scratch_subdir>  (1008) 
/opt/xchem-fragalysis-2/maxwin/BulkDock/SCRATCH/511016/C9210-P94

>  <fragmenstein_runtime>  (1008) 
28.363609790802002

>  <fragmenstein_outcome>  (1008) 
too moved

>  <fragmenstein_mode>  (1008) 
expansion

>  <fragmenstein_error>  (1008) 


$$$$
C9210-P95
     RDKit          3D

 45 48  0  0  0  0  0  0  0  0999 V2000
  -11.5090  -21.7956   23.1677 C   0  0  0  0  0  0  0  0  0  0  0  0
  -10.3302  -21.2100   22.9625 C   0  0  0  0  0  0  0  0  0  0  0  0
  -10.1698  -19.6170   23.3837 C   0  0  0  0  0  0  0  0  0  0  0  0
  -10.6663  -17.8927   24.0499 C   0  0  0  0  0  0  0  0  0  0  0  0
  -11.8696  -19.5514   24.3123 C   0  0  0  0  0  0  0  0  0  0  0  0
  -12.2448  -20.9797   23.9453 C   0  0  0  0  0  0  0  0  0  0  0  0
  -13.2554  -18.2527   24.1193 N   0  0  0  0  0  0  0  0  0  0  0  0
  -12.9733  -16.9141   23.8068 C   0  0  0  0  0  0  0  0  0  0  0  0
  -11.7103  -16.5360   23.1956 N   0  0  0  0  0  0  0  0  0  0  0  0
  -11.7304  -15.5419   21.5078 C   0  0  0  0  0  0  0  0  0  0  0  0
  -10.9558  -15.7884   19.7268 C   0  0  0  0  0  0  0  0  0  0  0  0
   -9.4102  -15.2300   19.1386 C   0  0  0  0  0  0  0  0  0  0  0  0
   -8.7638  -13.7868   19.5639 C   0  0  0  0  0  0  0  0  0  0  0  0
   -8.0647  -12.5972   18.3336 C   0  0  0  0  0  0  0  0  0  0  0  0
   -6.9440  -12.1190   17.1691 N   0  0  0  0  0  0  0  0  0  0  0  0
   -7.1706  -12.2334   15.6775 C   0  0  0  0  0  0  0  0  0  0  0  0
   -6.3202  -11.3036   14.6897 C   0  0  0  0  0  0  0  0  0  0  0  0
   -6.6518   -9.8100   14.6007 C   0  0  0  0  0  0  0  0  0  0  0  0
   -5.9430   -9.3570   13.3344 C   0  0  0  0  0  0  0  0  0  0  0  0
   -6.0284  -10.5677   12.4245 C   0  0  0  0  0  0  0  0  0  0  0  0
   -6.4998  -11.6787   13.2652 N   0  0  0  0  0  0  0  0  0  0  0  0
   -9.6275  -13.2013   20.9118 C   0  0  0  0  0  0  0  0  0  0  0  0
  -11.1170  -13.7976   21.8494 C   0  0  0  0  0  0  0  0  0  0  0  0
  -11.8600  -22.7128   22.7746 H   0  0  0  0  0  0  0  0  0  0  0  0
   -9.5347  -21.6857   22.3836 H   0  0  0  0  0  0  0  0  0  0  0  0
  -10.9622  -19.8385   22.4478 H   0  0  0  0  0  0  0  0  0  0  0  0
  -13.2969  -21.2236   24.0429 H   0  0  0  0  0  0  0  0  0  0  0  0
  -13.7058  -16.1833   23.9721 H   0  0  0  0  0  0  0  0  0  0  0  0
  -11.2079  -16.7794   19.1521 H   0  0  0  0  0  0  0  0  0  0  0  0
   -8.9368  -15.7780   18.3170 H   0  0  0  0  0  0  0  0  0  0  0  0
   -7.9958  -13.4590   17.7272 H   0  0  0  0  0  0  0  0  0  0  0  0
   -7.2462  -12.4718   19.0381 H   0  0  0  0  0  0  0  0  0  0  0  0
   -6.0360  -12.5038   17.4184 H   0  0  0  0  0  0  0  0  0  0  0  0
   -8.2187  -12.1159   15.4096 H   0  0  0  0  0  0  0  0  0  0  0  0
   -6.9198  -13.2717   15.4253 H   0  0  0  0  0  0  0  0  0  0  0  0
   -5.2600  -11.4265   14.9498 H   0  0  0  0  0  0  0  0  0  0  0  0
   -6.3123   -9.2499   15.4769 H   0  0  0  0  0  0  0  0  0  0  0  0
   -7.7264   -9.6445   14.4578 H   0  0  0  0  0  0  0  0  0  0  0  0
   -4.8944   -9.1283   13.5588 H   0  0  0  0  0  0  0  0  0  0  0  0
   -6.3994   -8.4658   12.8983 H   0  0  0  0  0  0  0  0  0  0  0  0
   -5.0494  -10.7929   11.9885 H   0  0  0  0  0  0  0  0  0  0  0  0
   -6.7366  -10.4032   11.6065 H   0  0  0  0  0  0  0  0  0  0  0  0
   -5.9925  -12.5349   13.0504 H   0  0  0  0  0  0  0  0  0  0  0  0
  -10.2010  -13.5543   19.7672 H   0  0  0  0  0  0  0  0  0  0  0  0
  -11.3463  -13.3935   22.8039 H   0  0  0  0  0  0  0  0  0  0  0  0
  1  2  2  0
  2  3  1  0
  3  4  2  0
  4  5  1  0
  5  6  2  0
  5  7  1  0
  7  8  2  0
  8  9  1  0
  9 10  1  0
 10 11  2  0
 11 12  1  0
 12 13  2  0
 13 14  1  0
 14 15  1  0
 15 16  1  0
 16 17  1  0
 17 18  1  0
 18 19  1  0
 19 20  1  0
 20 21  1  0
 13 22  1  0
 22 23  2  0
  6  1  1  0
 23 10  1  0
  9  4  1  0
 21 17  1  0
  1 24  1  0
  2 25  1  0
  3 26  1  0
  6 27  1  0
  8 28  1  0
 11 29  1  0
 12 30  1  0
 14 31  1  0
 14 32  1  0
 15 33  1  0
 16 34  1  0
 16 35  1  0
 17 36  1  0
 18 37  1  0
 18 38  1  0
 19 39  1  0
 19 40  1  0
 20 41  1  0
 20 42  1  0
 21 43  1  0
 22 44  1  0
 23 45  1  0
M  END
>  <Energy>  (1009) 
1386.5794997205096

>  <compound_id>  (1009) 
9210

>  <target_id>  (1009) 
1

>  <reference_id>  (1009) 
95

>  <inspiration_ids>  (1009) 
[94, 95]

>  <energy_score>  (1009) 
1263.9118333116905

>  <distance_score>  (1009) 
12.490035561884454

>  <path>  (1009) 
/opt/xchem-fragalysis-2/maxwin/BulkDock/SCRATCH/511016/C9210-P95/C9210-P95.minimised.mol

>  <scratch_subdir>  (1009) 
/opt/xchem-fragalysis-2/maxwin/BulkDock/SCRATCH/511016/C9210-P95

>  <fragmenstein_runtime>  (1009) 
20.785228729248047

>  <fragmenstein_outcome>  (1009) 
too moved

>  <fragmenstein_mode>  (1009) 
expansion

>  <fragmenstein_error>  (1009) 


$$$$
C9211-P94
     RDKit          3D

 44 47  0  0  0  0  0  0  0  0999 V2000
   -7.0622   -8.3033   18.7661 O   0  0  0  0  0  0  0  0  0  0  0  0
   -6.6769   -8.9266   17.8129 C   0  0  0  0  0  0  0  0  0  0  0  0
   -6.6509  -10.3547   17.5656 N   0  0  0  0  0  0  0  0  0  0  0  0
   -6.9946  -11.4914   18.4335 C   0  0  0  0  0  0  0  0  0  0  0  0
   -8.2692  -12.4372   18.5874 C   0  0  0  0  0  0  0  0  0  0  0  0
   -9.6081  -12.6459   18.6343 C   0  0  0  0  0  0  0  0  0  0  0  0
  -10.3910  -13.6717   19.8846 C   0  0  0  0  0  0  0  0  0  0  0  0
  -10.8237  -13.9258   21.8545 C   0  0  0  0  0  0  0  0  0  0  0  0
  -10.8552  -15.6450   23.1085 N   0  0  0  0  0  0  0  0  0  0  0  0
   -9.3186  -16.2309   24.3639 C   0  0  0  0  0  0  0  0  0  0  0  0
   -9.5160  -16.0479   25.8850 N   0  0  0  0  0  0  0  0  0  0  0  0
   -9.8253  -17.2318   25.9629 C   0  0  0  0  0  0  0  0  0  0  0  0
   -9.4373  -18.5835   27.2301 C   0  0  0  0  0  0  0  0  0  0  0  0
   -9.9604  -20.5513   26.6365 C   0  0  0  0  0  0  0  0  0  0  0  0
  -10.4815  -20.5131   24.6429 C   0  0  0  0  0  0  0  0  0  0  0  0
   -9.9338  -18.9552   23.5999 C   0  0  0  0  0  0  0  0  0  0  0  0
  -10.3079  -17.1977   24.1815 C   0  0  0  0  0  0  0  0  0  0  0  0
   -9.2894  -13.3402   21.0960 C   0  0  0  0  0  0  0  0  0  0  0  0
   -8.1865  -13.2302   19.6151 C   0  0  0  0  0  0  0  0  0  0  0  0
   -6.0344   -8.1004   16.5927 C   0  0  0  0  0  0  0  0  0  0  0  0
   -6.0149   -8.6339   15.1644 C   0  0  0  0  0  0  0  0  0  0  0  0
   -5.7408   -7.4034   14.3028 C   0  0  0  0  0  0  0  0  0  0  0  0
   -6.2433   -6.2354   15.1355 C   0  0  0  0  0  0  0  0  0  0  0  0
   -6.7966   -6.8469   16.3443 N   0  0  0  0  0  0  0  0  0  0  0  0
   -6.3360  -10.5182   16.6270 H   0  0  0  0  0  0  0  0  0  0  0  0
   -6.7572  -11.0683   19.4105 H   0  0  0  0  0  0  0  0  0  0  0  0
   -6.1503  -12.1634   18.2616 H   0  0  0  0  0  0  0  0  0  0  0  0
  -10.3647  -12.0770   18.0857 H   0  0  0  0  0  0  0  0  0  0  0  0
  -10.2594  -14.6628   19.2444 H   0  0  0  0  0  0  0  0  0  0  0  0
   -8.5628  -15.4237   24.7413 H   0  0  0  0  0  0  0  0  0  0  0  0
   -8.8771  -18.1925   28.0681 H   0  0  0  0  0  0  0  0  0  0  0  0
  -10.5044  -21.2847   27.3367 H   0  0  0  0  0  0  0  0  0  0  0  0
  -11.5087  -20.8913   24.4183 H   0  0  0  0  0  0  0  0  0  0  0  0
  -10.8077  -17.8887   24.3005 H   0  0  0  0  0  0  0  0  0  0  0  0
   -8.6055  -14.3836   20.5697 H   0  0  0  0  0  0  0  0  0  0  0  0
   -7.1397  -13.2133   19.9022 H   0  0  0  0  0  0  0  0  0  0  0  0
   -5.0133   -7.8491   16.9110 H   0  0  0  0  0  0  0  0  0  0  0  0
   -6.9805   -9.0642   14.8799 H   0  0  0  0  0  0  0  0  0  0  0  0
   -5.2426   -9.3952   15.0177 H   0  0  0  0  0  0  0  0  0  0  0  0
   -6.2320   -7.4808   13.3301 H   0  0  0  0  0  0  0  0  0  0  0  0
   -4.6637   -7.3007   14.1257 H   0  0  0  0  0  0  0  0  0  0  0  0
   -5.4154   -5.5637   15.3884 H   0  0  0  0  0  0  0  0  0  0  0  0
   -7.0062   -5.6532   14.6116 H   0  0  0  0  0  0  0  0  0  0  0  0
   -6.7283   -6.2340   17.1569 H   0  0  0  0  0  0  0  0  0  0  0  0
  1  2  2  0
  2  3  1  0
  3  4  1  0
  4  5  1  0
  5  6  2  0
  6  7  1  0
  7  8  2  0
  8  9  1  0
  9 10  1  0
 10 11  2  0
 11 12  1  0
 12 13  2  0
 13 14  1  0
 14 15  2  0
 15 16  1  0
 16 17  2  0
  8 18  1  0
 18 19  2  0
  2 20  1  0
 20 21  1  0
 21 22  1  0
 22 23  1  0
 23 24  1  0
 19  5  1  0
 24 20  1  0
 17  9  1  0
 17 12  1  0
  3 25  1  0
  4 26  1  0
  4 27  1  0
  6 28  1  0
  7 29  1  0
 10 30  1  0
 13 31  1  0
 14 32  1  0
 15 33  1  0
 16 34  1  0
 18 35  1  0
 19 36  1  0
 20 37  1  0
 21 38  1  0
 21 39  1  0
 22 40  1  0
 22 41  1  0
 23 42  1  0
 23 43  1  0
 24 44  1  0
M  END
>  <Energy>  (1010) 
2411.5245971978161

>  <compound_id>  (1010) 
9211

>  <target_id>  (1010) 
1

>  <reference_id>  (1010) 
94

>  <inspiration_ids>  (1010) 
[94, 95]

>  <energy_score>  (1010) 
2306.3216624422103

>  <distance_score>  (1010) 
12.404858760582377

>  <path>  (1010) 
/opt/xchem-fragalysis-2/maxwin/BulkDock/SCRATCH/511016/C9211-P94/C9211-P94.minimised.mol

>  <scratch_subdir>  (1010) 
/opt/xchem-fragalysis-2/maxwin/BulkDock/SCRATCH/511016/C9211-P94

>  <fragmenstein_runtime>  (1010) 
26.642695903778076

>  <fragmenstein_outcome>  (1010) 
too moved

>  <fragmenstein_mode>  (1010) 
expansion

>  <fragmenstein_error>  (1010) 


$$$$
C9211-P95
     RDKit          3D

 44 47  0  0  0  0  0  0  0  0999 V2000
  -14.8667   -9.6783   14.7996 O   0  0  0  0  0  0  0  0  0  0  0  0
  -13.9088  -10.4048   14.9707 C   0  0  0  0  0  0  0  0  0  0  0  0
  -13.5534  -11.2964   16.1180 N   0  0  0  0  0  0  0  0  0  0  0  0
  -14.3344  -11.5365   17.6999 C   0  0  0  0  0  0  0  0  0  0  0  0
  -15.2831  -13.3975   18.0685 C   0  0  0  0  0  0  0  0  0  0  0  0
  -15.1759  -14.6271   18.3461 C   0  0  0  0  0  0  0  0  0  0  0  0
  -16.4631  -15.4412   19.4617 C   0  0  0  0  0  0  0  0  0  0  0  0
  -17.7780  -15.8461   19.3441 C   0  0  0  0  0  0  0  0  0  0  0  0
  -18.2003  -17.2511   19.9046 N   0  0  0  0  0  0  0  0  0  0  0  0
  -17.4099  -18.4233   19.8594 C   0  0  0  0  0  0  0  0  0  0  0  0
  -17.5504  -19.2698   20.8443 N   0  0  0  0  0  0  0  0  0  0  0  0
  -18.6023  -18.7884   21.5262 C   0  0  0  0  0  0  0  0  0  0  0  0
  -19.1417  -19.3372   22.7021 C   0  0  0  0  0  0  0  0  0  0  0  0
  -20.2807  -18.7562   23.2344 C   0  0  0  0  0  0  0  0  0  0  0  0
  -20.8796  -17.6833   22.5727 C   0  0  0  0  0  0  0  0  0  0  0  0
  -20.3437  -17.1162   21.3934 C   0  0  0  0  0  0  0  0  0  0  0  0
  -19.1404  -17.6388   20.9003 C   0  0  0  0  0  0  0  0  0  0  0  0
  -18.0503  -15.0914   18.2543 C   0  0  0  0  0  0  0  0  0  0  0  0
  -16.8810  -14.0311   17.7161 C   0  0  0  0  0  0  0  0  0  0  0  0
  -12.8184  -10.4009   13.8359 C   0  0  0  0  0  0  0  0  0  0  0  0
  -12.6059  -11.7056   13.0886 C   0  0  0  0  0  0  0  0  0  0  0  0
  -12.5157  -11.2953   11.6267 C   0  0  0  0  0  0  0  0  0  0  0  0
  -13.5043  -10.1577   11.5602 C   0  0  0  0  0  0  0  0  0  0  0  0
  -13.2131   -9.4031   12.7784 N   0  0  0  0  0  0  0  0  0  0  0  0
  -12.7211  -11.8214   15.8866 H   0  0  0  0  0  0  0  0  0  0  0  0
  -14.9695  -10.7217   18.0481 H   0  0  0  0  0  0  0  0  0  0  0  0
  -13.3643  -11.1405   18.0900 H   0  0  0  0  0  0  0  0  0  0  0  0
  -14.2333  -15.0929   18.2280 H   0  0  0  0  0  0  0  0  0  0  0  0
  -16.0186  -16.0763   20.2868 H   0  0  0  0  0  0  0  0  0  0  0  0
  -16.7242  -18.6550   19.0672 H   0  0  0  0  0  0  0  0  0  0  0  0
  -18.6770  -20.2019   23.1633 H   0  0  0  0  0  0  0  0  0  0  0  0
  -20.7233  -19.1553   24.1429 H   0  0  0  0  0  0  0  0  0  0  0  0
  -21.7910  -17.2523   22.9868 H   0  0  0  0  0  0  0  0  0  0  0  0
  -20.8244  -16.2586   20.9320 H   0  0  0  0  0  0  0  0  0  0  0  0
  -18.9210  -15.2281   17.6194 H   0  0  0  0  0  0  0  0  0  0  0  0
  -17.3433  -13.8572   16.7201 H   0  0  0  0  0  0  0  0  0  0  0  0
  -11.8712  -10.0423   14.2363 H   0  0  0  0  0  0  0  0  0  0  0  0
  -13.4535  -12.3855   13.2375 H   0  0  0  0  0  0  0  0  0  0  0  0
  -11.6984  -12.2244   13.4137 H   0  0  0  0  0  0  0  0  0  0  0  0
  -11.5022  -10.9521   11.3860 H   0  0  0  0  0  0  0  0  0  0  0  0
  -12.7733  -12.1172   10.9527 H   0  0  0  0  0  0  0  0  0  0  0  0
  -14.5329  -10.5373   11.5891 H   0  0  0  0  0  0  0  0  0  0  0  0
  -13.3905   -9.5557   10.6558 H   0  0  0  0  0  0  0  0  0  0  0  0
  -14.0743   -8.9545   13.1192 H   0  0  0  0  0  0  0  0  0  0  0  0
  1  2  2  0
  2  3  1  0
  3  4  1  0
  4  5  1  0
  5  6  2  0
  6  7  1  0
  7  8  2  0
  8  9  1  0
  9 10  1  0
 10 11  2  0
 11 12  1  0
 12 13  2  0
 13 14  1  0
 14 15  2  0
 15 16  1  0
 16 17  2  0
  8 18  1  0
 18 19  2  0
  2 20  1  0
 20 21  1  0
 21 22  1  0
 22 23  1  0
 23 24  1  0
 19  5  1  0
 24 20  1  0
 17  9  1  0
 17 12  1  0
  3 25  1  0
  4 26  1  0
  4 27  1  0
  6 28  1  0
  7 29  1  0
 10 30  1  0
 13 31  1  0
 14 32  1  0
 15 33  1  0
 16 34  1  0
 18 35  1  0
 19 36  1  0
 20 37  1  0
 21 38  1  0
 21 39  1  0
 22 40  1  0
 22 41  1  0
 23 42  1  0
 23 43  1  0
 24 44  1  0
M  END
>  <Energy>  (1011) 
559.04824998486743

>  <compound_id>  (1011) 
9211

>  <target_id>  (1011) 
1

>  <reference_id>  (1011) 
95

>  <inspiration_ids>  (1011) 
[94, 95]

>  <energy_score>  (1011) 
453.84531522927716

>  <distance_score>  (1011) 
14.211025735472036

>  <path>  (1011) 
/opt/xchem-fragalysis-2/maxwin/BulkDock/SCRATCH/511016/C9211-P95/C9211-P95.minimised.mol

>  <scratch_subdir>  (1011) 
/opt/xchem-fragalysis-2/maxwin/BulkDock/SCRATCH/511016/C9211-P95

>  <fragmenstein_runtime>  (1011) 
41.85576891899109

>  <fragmenstein_outcome>  (1011) 
too moved

>  <fragmenstein_mode>  (1011) 
expansion

>  <fragmenstein_error>  (1011) 


$$$$
C9212-P94
     RDKit          3D

 41 44  0  0  0  0  0  0  0  0999 V2000
  -11.1018  -13.0511   15.7970 O   0  0  0  0  0  0  0  0  0  0  0  0
  -11.0402  -12.0963   16.4605 C   0  0  0  0  0  0  0  0  0  0  0  0
  -10.5049  -12.1168   18.1913 N   0  0  0  0  0  0  0  0  0  0  0  0
   -9.9144  -13.5265   19.2947 C   0  0  0  0  0  0  0  0  0  0  0  0
   -9.7637  -13.2283   21.1171 C   0  0  0  0  0  0  0  0  0  0  0  0
  -10.9748  -14.0857   22.2670 C   0  0  0  0  0  0  0  0  0  0  0  0
  -11.6359  -15.7298   22.5308 C   0  0  0  0  0  0  0  0  0  0  0  0
  -10.9653  -17.1462   23.7404 N   0  0  0  0  0  0  0  0  0  0  0  0
  -12.6418  -17.3168   24.3188 C   0  0  0  0  0  0  0  0  0  0  0  0
  -13.2526  -18.6343   23.9929 N   0  0  0  0  0  0  0  0  0  0  0  0
  -11.8730  -19.9545   24.0005 C   0  0  0  0  0  0  0  0  0  0  0  0
  -12.5437  -21.2331   23.7483 C   0  0  0  0  0  0  0  0  0  0  0  0
  -12.1172  -22.1854   22.9068 C   0  0  0  0  0  0  0  0  0  0  0  0
  -10.9163  -21.8748   22.4376 C   0  0  0  0  0  0  0  0  0  0  0  0
  -10.2967  -20.6437   22.8427 C   0  0  0  0  0  0  0  0  0  0  0  0
  -10.2156  -19.0395   23.4763 C   0  0  0  0  0  0  0  0  0  0  0  0
  -11.8281  -15.5444   20.7539 C   0  0  0  0  0  0  0  0  0  0  0  0
  -10.5591  -15.0892   19.3163 C   0  0  0  0  0  0  0  0  0  0  0  0
  -11.4218  -10.5971   15.4014 C   0  0  0  0  0  0  0  0  0  0  0  0
  -10.9854   -9.3706   13.9580 C   0  0  0  0  0  0  0  0  0  0  0  0
  -12.1755   -8.3050   13.9949 C   0  0  0  0  0  0  0  0  0  0  0  0
  -13.1716   -9.2791   14.1742 C   0  0  0  0  0  0  0  0  0  0  0  0
  -12.8829  -10.1224   15.2876 N   0  0  0  0  0  0  0  0  0  0  0  0
  -10.6100  -11.1933   18.5851 H   0  0  0  0  0  0  0  0  0  0  0  0
   -8.8422  -13.6821   20.7275 H   0  0  0  0  0  0  0  0  0  0  0  0
  -11.4789  -13.5308   21.4302 H   0  0  0  0  0  0  0  0  0  0  0  0
  -13.1079  -16.3584   24.4795 H   0  0  0  0  0  0  0  0  0  0  0  0
  -13.5955  -21.2691   24.0282 H   0  0  0  0  0  0  0  0  0  0  0  0
  -12.7038  -23.0478   22.6376 H   0  0  0  0  0  0  0  0  0  0  0  0
  -10.3661  -22.5202   21.7667 H   0  0  0  0  0  0  0  0  0  0  0  0
   -9.2601  -20.9260   22.4723 H   0  0  0  0  0  0  0  0  0  0  0  0
  -12.7835  -15.9691   20.3773 H   0  0  0  0  0  0  0  0  0  0  0  0
   -9.6313  -15.7230   19.3174 H   0  0  0  0  0  0  0  0  0  0  0  0
  -10.3568  -10.5587   14.9600 H   0  0  0  0  0  0  0  0  0  0  0  0
  -10.8794   -9.7753   12.9370 H   0  0  0  0  0  0  0  0  0  0  0  0
  -10.0028   -8.9246   14.2070 H   0  0  0  0  0  0  0  0  0  0  0  0
  -11.9261   -7.5227   14.7059 H   0  0  0  0  0  0  0  0  0  0  0  0
  -12.5314   -7.7635   13.1055 H   0  0  0  0  0  0  0  0  0  0  0  0
  -13.2104   -9.5663   13.1323 H   0  0  0  0  0  0  0  0  0  0  0  0
  -14.1564   -9.0144   14.2969 H   0  0  0  0  0  0  0  0  0  0  0  0
  -13.6053  -10.7301   15.6578 H   0  0  0  0  0  0  0  0  0  0  0  0
  1  2  2  0
  2  3  1  0
  3  4  1  0
  4  5  2  0
  5  6  1  0
  6  7  2  0
  7  8  1  0
  8  9  1  0
  9 10  2  0
 10 11  1  0
 11 12  2  0
 12 13  1  0
 13 14  2  0
 14 15  1  0
 15 16  2  0
  7 17  1  0
 17 18  2  0
  2 19  1  0
 19 20  1  0
 20 21  1  0
 21 22  1  0
 22 23  1  0
 18  4  1  0
 23 19  1  0
 16  8  1  0
 16 11  1  0
  3 24  1  0
  5 25  1  0
  6 26  1  0
  9 27  1  0
 12 28  1  0
 13 29  1  0
 14 30  1  0
 15 31  1  0
 17 32  1  0
 18 33  1  0
 19 34  1  0
 20 35  1  0
 20 36  1  0
 21 37  1  0
 21 38  1  0
 22 39  1  0
 22 40  1  0
 23 41  1  0
M  END
>  <Energy>  (1012) 
1659.2696153411493

>  <compound_id>  (1012) 
9212

>  <target_id>  (1012) 
1

>  <reference_id>  (1012) 
94

>  <inspiration_ids>  (1012) 
[94, 95]

>  <energy_score>  (1012) 
1520.5562908357801

>  <distance_score>  (1012) 
12.799457023767765

>  <path>  (1012) 
/opt/xchem-fragalysis-2/maxwin/BulkDock/SCRATCH/511016/C9212-P94/C9212-P94.minimised.mol

>  <scratch_subdir>  (1012) 
/opt/xchem-fragalysis-2/maxwin/BulkDock/SCRATCH/511016/C9212-P94

>  <fragmenstein_runtime>  (1012) 
31.640384435653687

>  <fragmenstein_outcome>  (1012) 
too moved

>  <fragmenstein_mode>  (1012) 
expansion

>  <fragmenstein_error>  (1012) 


$$$$
C9212-P95
     RDKit          3D

 41 44  0  0  0  0  0  0  0  0999 V2000
  -11.5603   -6.5775   27.0508 O   0  0  0  0  0  0  0  0  0  0  0  0
  -12.5193   -6.8299   26.3701 C   0  0  0  0  0  0  0  0  0  0  0  0
  -13.5576   -7.8496   26.5246 N   0  0  0  0  0  0  0  0  0  0  0  0
  -13.6936   -8.9011   27.4618 C   0  0  0  0  0  0  0  0  0  0  0  0
  -12.6709   -9.2920   28.3211 C   0  0  0  0  0  0  0  0  0  0  0  0
  -12.6862  -10.5748   28.9311 C   0  0  0  0  0  0  0  0  0  0  0  0
  -13.7301  -11.4890   28.7030 C   0  0  0  0  0  0  0  0  0  0  0  0
  -13.5898  -12.8707   29.0759 N   0  0  0  0  0  0  0  0  0  0  0  0
  -14.1954  -13.9449   28.4541 C   0  0  0  0  0  0  0  0  0  0  0  0
  -13.4991  -15.0496   28.5903 N   0  0  0  0  0  0  0  0  0  0  0  0
  -12.4939  -14.7250   29.4544 C   0  0  0  0  0  0  0  0  0  0  0  0
  -11.3936  -15.4712   29.8751 C   0  0  0  0  0  0  0  0  0  0  0  0
  -10.5533  -14.9177   30.8528 C   0  0  0  0  0  0  0  0  0  0  0  0
  -10.8330  -13.6951   31.4408 C   0  0  0  0  0  0  0  0  0  0  0  0
  -11.8922  -12.9212   30.9888 C   0  0  0  0  0  0  0  0  0  0  0  0
  -12.6511  -13.4284   29.9294 C   0  0  0  0  0  0  0  0  0  0  0  0
  -14.8104  -11.0452   27.9294 C   0  0  0  0  0  0  0  0  0  0  0  0
  -14.7934   -9.7640   27.3286 C   0  0  0  0  0  0  0  0  0  0  0  0
  -12.7211   -6.0533   25.0054 C   0  0  0  0  0  0  0  0  0  0  0  0
  -11.4969   -6.2715   24.1003 C   0  0  0  0  0  0  0  0  0  0  0  0
  -11.1132   -4.9049   23.5381 C   0  0  0  0  0  0  0  0  0  0  0  0
  -12.3358   -4.0642   23.8094 C   0  0  0  0  0  0  0  0  0  0  0  0
  -12.8041   -4.5790   25.1134 N   0  0  0  0  0  0  0  0  0  0  0  0
  -14.2597   -7.7190   25.8073 H   0  0  0  0  0  0  0  0  0  0  0  0
  -11.7880   -8.6688   28.4495 H   0  0  0  0  0  0  0  0  0  0  0  0
  -11.7868  -10.8484   29.4748 H   0  0  0  0  0  0  0  0  0  0  0  0
  -15.0687  -13.8487   27.8255 H   0  0  0  0  0  0  0  0  0  0  0  0
  -11.2308  -16.4444   29.4351 H   0  0  0  0  0  0  0  0  0  0  0  0
   -9.6783  -15.4331   31.2252 H   0  0  0  0  0  0  0  0  0  0  0  0
  -10.1957  -13.3233   32.2402 H   0  0  0  0  0  0  0  0  0  0  0  0
  -12.0819  -11.9436   31.4194 H   0  0  0  0  0  0  0  0  0  0  0  0
  -15.6646  -11.6857   27.7244 H   0  0  0  0  0  0  0  0  0  0  0  0
  -15.6190   -9.4974   26.6715 H   0  0  0  0  0  0  0  0  0  0  0  0
  -13.6233   -6.4033   24.4921 H   0  0  0  0  0  0  0  0  0  0  0  0
  -11.7878   -6.9829   23.3322 H   0  0  0  0  0  0  0  0  0  0  0  0
  -10.6411   -6.7091   24.6267 H   0  0  0  0  0  0  0  0  0  0  0  0
  -10.8249   -4.9090   22.4870 H   0  0  0  0  0  0  0  0  0  0  0  0
  -10.2583   -4.5128   24.1040 H   0  0  0  0  0  0  0  0  0  0  0  0
  -12.1047   -2.9966   23.8640 H   0  0  0  0  0  0  0  0  0  0  0  0
  -13.1092   -4.2148   23.0483 H   0  0  0  0  0  0  0  0  0  0  0  0
  -12.1365   -4.2901   25.8366 H   0  0  0  0  0  0  0  0  0  0  0  0
  1  2  2  0
  2  3  1  0
  3  4  1  0
  4  5  2  0
  5  6  1  0
  6  7  2  0
  7  8  1  0
  8  9  1  0
  9 10  2  0
 10 11  1  0
 11 12  2  0
 12 13  1  0
 13 14  2  0
 14 15  1  0
 15 16  2  0
  7 17  1  0
 17 18  2  0
  2 19  1  0
 19 20  1  0
 20 21  1  0
 21 22  1  0
 22 23  1  0
 18  4  1  0
 23 19  1  0
 16  8  1  0
 16 11  1  0
  3 24  1  0
  5 25  1  0
  6 26  1  0
  9 27  1  0
 12 28  1  0
 13 29  1  0
 14 30  1  0
 15 31  1  0
 17 32  1  0
 18 33  1  0
 19 34  1  0
 20 35  1  0
 20 36  1  0
 21 37  1  0
 21 38  1  0
 22 39  1  0
 22 40  1  0
 23 41  1  0
M  END
>  <Energy>  (1013) 
106.18970030019695

>  <compound_id>  (1013) 
9212

>  <target_id>  (1013) 
1

>  <reference_id>  (1013) 
95

>  <inspiration_ids>  (1013) 
[94, 95]

>  <energy_score>  (1013) 
-32.523624205175906

>  <distance_score>  (1013) 
16.883320120941118

>  <path>  (1013) 
/opt/xchem-fragalysis-2/maxwin/BulkDock/SCRATCH/511016/C9212-P95/C9212-P95.minimised.mol

>  <scratch_subdir>  (1013) 
/opt/xchem-fragalysis-2/maxwin/BulkDock/SCRATCH/511016/C9212-P95

>  <fragmenstein_runtime>  (1013) 
37.4963059425354

>  <fragmenstein_outcome>  (1013) 
too moved

>  <fragmenstein_mode>  (1013) 
expansion

>  <fragmenstein_error>  (1013) 


$$$$
C9232-P94
     RDKit          3D

 40 42  0  0  0  0  0  0  0  0999 V2000
   -5.7483   -7.2270   18.7265 C   0  0  0  0  0  0  0  0  0  0  0  0
   -7.1830   -6.8695   18.4648 C   0  0  0  0  0  0  0  0  0  0  0  0
   -7.5483   -6.2597   17.2327 C   0  0  0  0  0  0  0  0  0  0  0  0
   -8.8686   -5.8645   16.8259 C   0  0  0  0  0  0  0  0  0  0  0  0
   -8.9300   -5.3194   15.4451 N   0  0  0  0  0  0  0  0  0  0  0  0
  -10.0694   -5.2646   14.4495 C   0  0  0  0  0  0  0  0  0  0  0  0
  -11.2245   -5.5798   14.5684 O   0  0  0  0  0  0  0  0  0  0  0  0
   -9.4684   -4.4812   12.9451 C   0  0  0  0  0  0  0  0  0  0  0  0
   -9.8398   -4.3264   11.0113 C   0  0  0  0  0  0  0  0  0  0  0  0
   -9.1502   -3.5566    9.2740 C   0  0  0  0  0  0  0  0  0  0  0  0
   -9.4299   -2.0379    8.7380 C   0  0  0  0  0  0  0  0  0  0  0  0
   -8.7657   -2.0480    7.3665 C   0  0  0  0  0  0  0  0  0  0  0  0
   -9.1113   -3.4212    6.8437 C   0  0  0  0  0  0  0  0  0  0  0  0
   -8.9771   -4.3458    7.9841 N   0  0  0  0  0  0  0  0  0  0  0  0
   -9.8127   -6.1648   17.8745 C   0  0  0  0  0  0  0  0  0  0  0  0
  -11.1909   -6.1316   17.9796 N   0  0  0  0  0  0  0  0  0  0  0  0
  -11.5809   -6.6505   19.1962 C   0  0  0  0  0  0  0  0  0  0  0  0
  -10.5568   -6.9792   19.9431 N   0  0  0  0  0  0  0  0  0  0  0  0
   -9.4645   -6.7154   19.1460 C   0  0  0  0  0  0  0  0  0  0  0  0
   -8.1414   -7.0583   19.4523 C   0  0  0  0  0  0  0  0  0  0  0  0
   -5.6739   -8.0381   19.4587 H   0  0  0  0  0  0  0  0  0  0  0  0
   -5.2092   -6.3552   19.1094 H   0  0  0  0  0  0  0  0  0  0  0  0
   -5.2612   -7.5733   17.8090 H   0  0  0  0  0  0  0  0  0  0  0  0
   -6.7394   -6.1057   16.5141 H   0  0  0  0  0  0  0  0  0  0  0  0
   -8.0703   -5.0532   14.9829 H   0  0  0  0  0  0  0  0  0  0  0  0
   -8.4047   -4.7266   12.9914 H   0  0  0  0  0  0  0  0  0  0  0  0
   -9.6258   -3.4786   13.3972 H   0  0  0  0  0  0  0  0  0  0  0  0
   -9.0981   -5.0167   10.9032 H   0  0  0  0  0  0  0  0  0  0  0  0
  -10.6453   -5.0070   10.8486 H   0  0  0  0  0  0  0  0  0  0  0  0
   -8.0803   -3.4387    9.2747 H   0  0  0  0  0  0  0  0  0  0  0  0
   -9.0047   -1.2371    9.3434 H   0  0  0  0  0  0  0  0  0  0  0  0
  -10.4728   -1.7548    8.5570 H   0  0  0  0  0  0  0  0  0  0  0  0
   -9.1414   -1.2492    6.7202 H   0  0  0  0  0  0  0  0  0  0  0  0
   -7.6801   -1.9287    7.4658 H   0  0  0  0  0  0  0  0  0  0  0  0
  -10.1433   -3.4393    6.4762 H   0  0  0  0  0  0  0  0  0  0  0  0
   -8.4598   -3.7190    6.0165 H   0  0  0  0  0  0  0  0  0  0  0  0
   -8.0283   -4.7185    7.9458 H   0  0  0  0  0  0  0  0  0  0  0  0
  -11.8100   -5.8514   17.2306 H   0  0  0  0  0  0  0  0  0  0  0  0
  -12.6246   -6.7576   19.4615 H   0  0  0  0  0  0  0  0  0  0  0  0
   -7.9005   -7.4830   20.4181 H   0  0  0  0  0  0  0  0  0  0  0  0
  1  2  1  0
  2  3  2  0
  3  4  1  0
  4  5  1  0
  5  6  1  0
  6  7  2  0
  6  8  1  0
  8  9  1  0
  9 10  1  0
 10 11  1  0
 11 12  1  0
 12 13  1  0
 13 14  1  0
  4 15  2  0
 15 16  1  0
 16 17  1  0
 17 18  2  0
 18 19  1  0
 19 20  2  0
 20  2  1  0
 14 10  1  0
 19 15  1  0
  1 21  1  0
  1 22  1  0
  1 23  1  0
  3 24  1  0
  5 25  1  0
  8 26  1  0
  8 27  1  0
  9 28  1  0
  9 29  1  0
 10 30  1  0
 11 31  1  0
 11 32  1  0
 12 33  1  0
 12 34  1  0
 13 35  1  0
 13 36  1  0
 14 37  1  0
 16 38  1  0
 17 39  1  0
 20 40  1  0
M  END
>  <Energy>  (1014) 
223.19288873469247

>  <compound_id>  (1014) 
9232

>  <target_id>  (1014) 
1

>  <reference_id>  (1014) 
94

>  <inspiration_ids>  (1014) 
[94, 95]

>  <energy_score>  (1014) 
185.14769804990902

>  <distance_score>  (1014) 
16.055235606291426

>  <path>  (1014) 
/opt/xchem-fragalysis-2/maxwin/BulkDock/SCRATCH/511016/C9232-P94/C9232-P94.minimised.mol

>  <scratch_subdir>  (1014) 
/opt/xchem-fragalysis-2/maxwin/BulkDock/SCRATCH/511016/C9232-P94

>  <fragmenstein_runtime>  (1014) 
22.163074016571045

>  <fragmenstein_outcome>  (1014) 
too moved

>  <fragmenstein_mode>  (1014) 
expansion

>  <fragmenstein_error>  (1014) 


$$$$
C9232-P95
     RDKit          3D

 40 42  0  0  0  0  0  0  0  0999 V2000
   -2.9677  -18.4936   21.2693 C   0  0  0  0  0  0  0  0  0  0  0  0
   -4.2027  -19.1314   20.6987 C   0  0  0  0  0  0  0  0  0  0  0  0
   -4.6386  -18.7652   19.4025 C   0  0  0  0  0  0  0  0  0  0  0  0
   -5.8083  -19.2482   18.7845 C   0  0  0  0  0  0  0  0  0  0  0  0
   -6.2397  -18.6986   17.5149 N   0  0  0  0  0  0  0  0  0  0  0  0
   -5.5617  -17.7475   16.5797 C   0  0  0  0  0  0  0  0  0  0  0  0
   -4.4570  -17.2681   16.6149 O   0  0  0  0  0  0  0  0  0  0  0  0
   -6.5353  -17.2245   15.4091 C   0  0  0  0  0  0  0  0  0  0  0  0
   -5.9184  -16.1071   14.4266 C   0  0  0  0  0  0  0  0  0  0  0  0
   -6.8503  -15.2624   13.4986 C   0  0  0  0  0  0  0  0  0  0  0  0
   -7.5342  -15.9524   12.3300 C   0  0  0  0  0  0  0  0  0  0  0  0
   -7.9544  -14.7972   11.4154 C   0  0  0  0  0  0  0  0  0  0  0  0
   -7.0015  -13.6623   11.7492 C   0  0  0  0  0  0  0  0  0  0  0  0
   -6.0970  -14.2060   12.7695 N   0  0  0  0  0  0  0  0  0  0  0  0
   -6.4824  -20.2208   19.5903 C   0  0  0  0  0  0  0  0  0  0  0  0
   -7.5848  -21.0262   19.4094 N   0  0  0  0  0  0  0  0  0  0  0  0
   -7.7848  -21.7856   20.5325 C   0  0  0  0  0  0  0  0  0  0  0  0
   -6.8926  -21.5440   21.4565 N   0  0  0  0  0  0  0  0  0  0  0  0
   -6.0759  -20.6004   20.8874 C   0  0  0  0  0  0  0  0  0  0  0  0
   -4.9390  -20.0348   21.4632 C   0  0  0  0  0  0  0  0  0  0  0  0
   -2.5252  -19.1205   22.0505 H   0  0  0  0  0  0  0  0  0  0  0  0
   -3.2169  -17.5187   21.7000 H   0  0  0  0  0  0  0  0  0  0  0  0
   -2.2076  -18.3573   20.4929 H   0  0  0  0  0  0  0  0  0  0  0  0
   -4.0314  -18.0368   18.8637 H   0  0  0  0  0  0  0  0  0  0  0  0
   -7.1399  -18.9556   17.1329 H   0  0  0  0  0  0  0  0  0  0  0  0
   -6.8557  -18.0877   14.8175 H   0  0  0  0  0  0  0  0  0  0  0  0
   -7.4021  -16.7932   15.9147 H   0  0  0  0  0  0  0  0  0  0  0  0
   -5.1559  -16.6067   13.8145 H   0  0  0  0  0  0  0  0  0  0  0  0
   -5.3716  -15.4028   15.0678 H   0  0  0  0  0  0  0  0  0  0  0  0
   -7.6191  -14.8039   14.1252 H   0  0  0  0  0  0  0  0  0  0  0  0
   -6.8354  -16.6128   11.8013 H   0  0  0  0  0  0  0  0  0  0  0  0
   -8.3933  -16.5534   12.6432 H   0  0  0  0  0  0  0  0  0  0  0  0
   -7.8976  -15.0922   10.3629 H   0  0  0  0  0  0  0  0  0  0  0  0
   -8.9872  -14.5010   11.6322 H   0  0  0  0  0  0  0  0  0  0  0  0
   -7.5487  -12.8027   12.1505 H   0  0  0  0  0  0  0  0  0  0  0  0
   -6.4420  -13.3245   10.8714 H   0  0  0  0  0  0  0  0  0  0  0  0
   -5.2949  -14.6376   12.3080 H   0  0  0  0  0  0  0  0  0  0  0  0
   -8.1654  -21.0605   18.5867 H   0  0  0  0  0  0  0  0  0  0  0  0
   -8.6113  -22.4718   20.5969 H   0  0  0  0  0  0  0  0  0  0  0  0
   -4.6331  -20.3299   22.4597 H   0  0  0  0  0  0  0  0  0  0  0  0
  1  2  1  0
  2  3  2  0
  3  4  1  0
  4  5  1  0
  5  6  1  0
  6  7  2  0
  6  8  1  0
  8  9  1  0
  9 10  1  0
 10 11  1  0
 11 12  1  0
 12 13  1  0
 13 14  1  0
  4 15  2  0
 15 16  1  0
 16 17  1  0
 17 18  2  0
 18 19  1  0
 19 20  2  0
 20  2  1  0
 14 10  1  0
 19 15  1  0
  1 21  1  0
  1 22  1  0
  1 23  1  0
  3 24  1  0
  5 25  1  0
  8 26  1  0
  8 27  1  0
  9 28  1  0
  9 29  1  0
 10 30  1  0
 11 31  1  0
 11 32  1  0
 12 33  1  0
 12 34  1  0
 13 35  1  0
 13 36  1  0
 14 37  1  0
 16 38  1  0
 17 39  1  0
 20 40  1  0
M  END
>  <Energy>  (1015) 
17.521651867996592

>  <compound_id>  (1015) 
9232

>  <target_id>  (1015) 
1

>  <reference_id>  (1015) 
95

>  <inspiration_ids>  (1015) 
[94, 95]

>  <energy_score>  (1015) 
-20.523538816786868

>  <distance_score>  (1015) 
15.076235025697974

>  <path>  (1015) 
/opt/xchem-fragalysis-2/maxwin/BulkDock/SCRATCH/511016/C9232-P95/C9232-P95.minimised.mol

>  <scratch_subdir>  (1015) 
/opt/xchem-fragalysis-2/maxwin/BulkDock/SCRATCH/511016/C9232-P95

>  <fragmenstein_runtime>  (1015) 
26.859060764312744

>  <fragmenstein_outcome>  (1015) 
too moved

>  <fragmenstein_mode>  (1015) 
expansion

>  <fragmenstein_error>  (1015) 


$$$$
C17201-P56
     RDKit          3D

 41 43  0  0  0  0  0  0  0  0999 V2000
   -5.4851   -4.7470   20.3580 C   0  0  0  0  0  0  0  0  0  0  0  0
   -4.5980   -5.3626   21.4404 C   0  0  0  0  0  0  0  0  0  0  0  0
   -4.1009   -6.6986   22.6510 C   0  0  0  0  0  0  0  0  0  0  0  0
   -2.6941   -6.0935   23.7274 O   0  0  0  0  0  0  0  0  0  0  0  0
   -1.7183   -6.8025   24.9260 C   0  0  0  0  0  0  0  0  0  0  0  0
   -0.4669   -6.3968   25.0081 C   0  0  0  0  0  0  0  0  0  0  0  0
    0.1041   -6.1080   26.4432 C   0  0  0  0  0  0  0  0  0  0  0  0
   -0.4271   -5.8800   27.6905 C   0  0  0  0  0  0  0  0  0  0  0  0
   -1.4399   -6.7293   27.7393 C   0  0  0  0  0  0  0  0  0  0  0  0
   -2.1156   -6.8889   26.3870 C   0  0  0  0  0  0  0  0  0  0  0  0
   -1.8432   -7.2030   28.9451 O   0  0  0  0  0  0  0  0  0  0  0  0
   -0.9281   -7.0089   30.0668 C   0  0  0  0  0  0  0  0  0  0  0  0
   -0.2252   -5.6877   30.0241 C   0  0  0  0  0  0  0  0  0  0  0  0
   -0.3217   -4.8107   31.2266 C   0  0  0  0  0  0  0  0  0  0  0  0
   -1.2312   -4.0299   31.2562 O   0  0  0  0  0  0  0  0  0  0  0  0
    0.7216   -5.0687   32.1714 N   0  0  0  0  0  0  0  0  0  0  0  0
    0.9461   -4.5556   33.4543 C   0  0  0  0  0  0  0  0  0  0  0  0
    2.0870   -4.9147   34.1601 C   0  0  0  0  0  0  0  0  0  0  0  0
    2.2821   -4.3645   35.4201 C   0  0  0  0  0  0  0  0  0  0  0  0
    1.4201   -3.5155   36.0184 N   0  0  0  0  0  0  0  0  0  0  0  0
    0.3176   -3.1935   35.3172 C   0  0  0  0  0  0  0  0  0  0  0  0
    0.0444   -3.6761   34.0476 C   0  0  0  0  0  0  0  0  0  0  0  0
    0.0565   -5.1320   28.8352 C   0  0  0  0  0  0  0  0  0  0  0  0
   -6.3326   -5.3391   20.0236 H   0  0  0  0  0  0  0  0  0  0  0  0
   -6.0097   -3.8896   20.7719 H   0  0  0  0  0  0  0  0  0  0  0  0
   -4.8345   -4.4635   19.5373 H   0  0  0  0  0  0  0  0  0  0  0  0
   -4.0472   -4.4808   21.7176 H   0  0  0  0  0  0  0  0  0  0  0  0
   -5.5909   -5.4690   21.8651 H   0  0  0  0  0  0  0  0  0  0  0  0
   -4.9210   -6.9182   23.2907 H   0  0  0  0  0  0  0  0  0  0  0  0
   -3.7224   -7.6154   22.1602 H   0  0  0  0  0  0  0  0  0  0  0  0
    0.1746   -6.3484   24.1360 H   0  0  0  0  0  0  0  0  0  0  0  0
    0.3458   -7.2145   26.6681 H   0  0  0  0  0  0  0  0  0  0  0  0
   -2.1964   -5.7871   26.3609 H   0  0  0  0  0  0  0  0  0  0  0  0
   -1.5378   -7.0900   30.9736 H   0  0  0  0  0  0  0  0  0  0  0  0
   -0.2293   -7.8463   30.0823 H   0  0  0  0  0  0  0  0  0  0  0  0
    1.3675   -5.7449   31.7749 H   0  0  0  0  0  0  0  0  0  0  0  0
    2.8283   -5.5903   33.7508 H   0  0  0  0  0  0  0  0  0  0  0  0
    3.1746   -4.5958   35.9929 H   0  0  0  0  0  0  0  0  0  0  0  0
   -0.3691   -2.5135   35.8121 H   0  0  0  0  0  0  0  0  0  0  0  0
   -0.8693   -3.3642   33.5550 H   0  0  0  0  0  0  0  0  0  0  0  0
    0.4212   -4.1209   28.6969 H   0  0  0  0  0  0  0  0  0  0  0  0
  1  2  1  0
  2  3  1  0
  3  4  1  0
  4  5  1  0
  5  6  2  0
  6  7  1  0
  7  8  2  0
  8  9  1  0
  9 10  2  0
  9 11  1  0
 11 12  1  0
 12 13  1  0
 13 14  1  0
 14 15  2  0
 14 16  1  0
 16 17  1  0
 17 18  2  0
 18 19  1  0
 19 20  2  0
 20 21  1  0
 21 22  2  0
 13 23  2  0
 10  5  1  0
 22 17  1  0
 23  8  1  0
  1 24  1  0
  1 25  1  0
  1 26  1  0
  2 27  1  0
  2 28  1  0
  3 29  1  0
  3 30  1  0
  6 31  1  0
  7 32  1  0
 10 33  1  0
 12 34  1  0
 12 35  1  0
 16 36  1  0
 18 37  1  0
 19 38  1  0
 21 39  1  0
 22 40  1  0
 23 41  1  0
M  END
>  <Energy>  (1016) 
414.25090427573991

>  <compound_id>  (1016) 
17201

>  <target_id>  (1016) 
1

>  <reference_id>  (1016) 
56

>  <inspiration_ids>  (1016) 
[91, 56]

>  <energy_score>  (1016) 
332.2683816572004

>  <distance_score>  (1016) 
8.091482647623906

>  <path>  (1016) 
/opt/xchem-fragalysis-2/maxwin/BulkDock/SCRATCH/511016/C17201-P56/C17201-P56.minimised.mol

>  <scratch_subdir>  (1016) 
/opt/xchem-fragalysis-2/maxwin/BulkDock/SCRATCH/511016/C17201-P56

>  <fragmenstein_runtime>  (1016) 
21.4338116645813

>  <fragmenstein_outcome>  (1016) 
too moved

>  <fragmenstein_mode>  (1016) 
expansion

>  <fragmenstein_error>  (1016) 


$$$$
C8568-P81
     RDKit          3D

 43 44  0  0  0  0  0  0  0  0999 V2000
   12.1183    0.0290   15.8283 C   0  0  0  0  0  0  0  0  0  0  0  0
   11.0376    1.0875   15.5062 C   0  0  0  0  0  0  0  0  0  0  0  0
   11.4087    2.4631   16.0964 C   0  0  0  0  0  0  0  0  0  0  0  0
   11.0638    1.2648   13.9750 C   0  0  0  0  0  0  0  0  0  0  0  0
   10.1453    1.2840   13.1716 O   0  0  0  0  0  0  0  0  0  0  0  0
   12.3191    1.4601   13.4947 O   0  0  0  0  0  0  0  0  0  0  0  0
    9.7323    0.6060   16.0286 N   0  0  0  0  0  0  0  0  0  0  0  0
    8.9888   -0.4081   15.5374 C   0  0  0  0  0  0  0  0  0  0  0  0
    7.9282   -0.4978   16.4056 C   0  0  0  0  0  0  0  0  0  0  0  0
    8.2340    0.1896   17.6464 C   0  0  0  0  0  0  0  0  0  0  0  0
    7.2719    0.5897   19.0325 N   0  0  0  0  0  0  0  0  0  0  0  0
    6.9430   -0.2175   20.4126 C   0  0  0  0  0  0  0  0  0  0  0  0
    7.4510   -1.2401   20.6858 O   0  0  0  0  0  0  0  0  0  0  0  0
    5.4476    0.2669   21.8748 C   0  0  0  0  0  0  0  0  0  0  0  0
    5.1712   -1.0527   22.2962 F   0  0  0  0  0  0  0  0  0  0  0  0
    4.3349    0.6894   21.2942 F   0  0  0  0  0  0  0  0  0  0  0  0
    4.1213    1.3333   23.0009 C   0  0  0  0  0  0  0  0  0  0  0  0
    2.7228    2.1147   22.3473 C   0  0  0  0  0  0  0  0  0  0  0  0
    1.9702    3.0291   23.3690 C   0  0  0  0  0  0  0  0  0  0  0  0
    1.6194    2.4550   24.6627 N   0  0  0  0  0  0  0  0  0  0  0  0
    2.8092    2.0747   25.4081 C   0  0  0  0  0  0  0  0  0  0  0  0
    3.7239    1.0147   24.7465 C   0  0  0  0  0  0  0  0  0  0  0  0
    9.1732    1.0996   17.1683 N   0  0  0  0  0  0  0  0  0  0  0  0
   11.9881   -0.8650   15.2051 H   0  0  0  0  0  0  0  0  0  0  0  0
   12.0971   -0.3099   16.8629 H   0  0  0  0  0  0  0  0  0  0  0  0
   13.1281    0.4108   15.6378 H   0  0  0  0  0  0  0  0  0  0  0  0
   12.3598    2.8322   15.6951 H   0  0  0  0  0  0  0  0  0  0  0  0
   10.6449    3.2110   15.8508 H   0  0  0  0  0  0  0  0  0  0  0  0
   11.5122    2.4416   17.1843 H   0  0  0  0  0  0  0  0  0  0  0  0
   12.2267    1.5456   12.5229 H   0  0  0  0  0  0  0  0  0  0  0  0
    9.1950   -0.8878   14.5933 H   0  0  0  0  0  0  0  0  0  0  0  0
    7.0650   -1.0858   16.1787 H   0  0  0  0  0  0  0  0  0  0  0  0
    6.7011    1.3385   18.9777 H   0  0  0  0  0  0  0  0  0  0  0  0
    4.1972    2.3915   23.0743 H   0  0  0  0  0  0  0  0  0  0  0  0
    2.1747    1.4751   21.6810 H   0  0  0  0  0  0  0  0  0  0  0  0
    2.9119    2.8898   21.6047 H   0  0  0  0  0  0  0  0  0  0  0  0
    2.5617    3.9406   23.5329 H   0  0  0  0  0  0  0  0  0  0  0  0
    1.0442    3.3700   22.8879 H   0  0  0  0  0  0  0  0  0  0  0  0
    1.1123    3.1595   25.2002 H   0  0  0  0  0  0  0  0  0  0  0  0
    3.3629    2.9820   25.6679 H   0  0  0  0  0  0  0  0  0  0  0  0
    2.4819    1.6661   26.3726 H   0  0  0  0  0  0  0  0  0  0  0  0
    3.2927    0.0331   24.9582 H   0  0  0  0  0  0  0  0  0  0  0  0
    4.6146    0.9444   25.3753 H   0  0  0  0  0  0  0  0  0  0  0  0
  1  2  1  0
  2  3  1  0
  2  4  1  0
  4  5  2  0
  4  6  1  0
  2  7  1  0
  7  8  1  0
  8  9  2  0
  9 10  1  0
 10 11  1  0
 11 12  1  0
 12 13  2  0
 12 14  1  0
 14 15  1  0
 14 16  1  0
 14 17  1  0
 17 18  1  0
 18 19  1  0
 19 20  1  0
 20 21  1  0
 21 22  1  0
 10 23  2  0
 23  7  1  0
 22 17  1  0
  1 24  1  0
  1 25  1  0
  1 26  1  0
  3 27  1  0
  3 28  1  0
  3 29  1  0
  6 30  1  0
  8 31  1  0
  9 32  1  0
 11 33  1  0
 17 34  1  0
 18 35  1  0
 18 36  1  0
 19 37  1  0
 19 38  1  0
 20 39  1  0
 21 40  1  0
 21 41  1  0
 22 42  1  0
 22 43  1  0
M  END
>  <Energy>  (1017) 
483.78389318568429

>  <compound_id>  (1017) 
8568

>  <target_id>  (1017) 
1

>  <reference_id>  (1017) 
81

>  <inspiration_ids>  (1017) 
[81, 44]

>  <energy_score>  (1017) 
403.1223431388021

>  <distance_score>  (1017) 
5.914315126264079

>  <path>  (1017) 
/opt/xchem-fragalysis-2/maxwin/BulkDock/SCRATCH/511016/C8568-P81/C8568-P81.minimised.mol

>  <scratch_subdir>  (1017) 
/opt/xchem-fragalysis-2/maxwin/BulkDock/SCRATCH/511016/C8568-P81

>  <fragmenstein_runtime>  (1017) 
11.233736515045166

>  <fragmenstein_outcome>  (1017) 
too moved

>  <fragmenstein_mode>  (1017) 
expansion

>  <fragmenstein_error>  (1017) 


$$$$
C8568-P44
     RDKit          3D

 43 44  0  0  0  0  0  0  0  0999 V2000
    8.5425    6.4504   15.9675 C   0  0  0  0  0  0  0  0  0  0  0  0
    7.9636    5.1819   16.6251 C   0  0  0  0  0  0  0  0  0  0  0  0
    6.9357    4.5827   15.6441 C   0  0  0  0  0  0  0  0  0  0  0  0
    9.0946    4.1629   16.8159 C   0  0  0  0  0  0  0  0  0  0  0  0
    9.1845    3.0580   16.2978 O   0  0  0  0  0  0  0  0  0  0  0  0
   10.1004    4.6101   17.6018 O   0  0  0  0  0  0  0  0  0  0  0  0
    7.3536    5.5226   17.9214 N   0  0  0  0  0  0  0  0  0  0  0  0
    7.9814    6.0802   19.0038 C   0  0  0  0  0  0  0  0  0  0  0  0
    7.0116    6.2697   19.9574 C   0  0  0  0  0  0  0  0  0  0  0  0
    5.8135    5.8126   19.3798 C   0  0  0  0  0  0  0  0  0  0  0  0
    4.5850    5.6954   19.9725 N   0  0  0  0  0  0  0  0  0  0  0  0
    4.1910    5.7535   21.3759 C   0  0  0  0  0  0  0  0  0  0  0  0
    4.8351    5.9983   22.3624 O   0  0  0  0  0  0  0  0  0  0  0  0
    2.6246    5.5382   21.4668 C   0  0  0  0  0  0  0  0  0  0  0  0
    2.1665    5.0383   20.2693 F   0  0  0  0  0  0  0  0  0  0  0  0
    2.0109    6.7611   21.5798 F   0  0  0  0  0  0  0  0  0  0  0  0
    2.0796    4.6304   22.6007 C   0  0  0  0  0  0  0  0  0  0  0  0
    0.5536    4.3973   22.4188 C   0  0  0  0  0  0  0  0  0  0  0  0
   -0.2163    4.1872   23.7285 C   0  0  0  0  0  0  0  0  0  0  0  0
    0.5716    3.4403   24.6999 N   0  0  0  0  0  0  0  0  0  0  0  0
    1.7886    4.1666   25.0812 C   0  0  0  0  0  0  0  0  0  0  0  0
    2.3192    5.1516   24.0238 C   0  0  0  0  0  0  0  0  0  0  0  0
    6.0119    5.4426   18.1088 N   0  0  0  0  0  0  0  0  0  0  0  0
    9.3100    6.9256   16.5891 H   0  0  0  0  0  0  0  0  0  0  0  0
    7.7591    7.1966   15.7904 H   0  0  0  0  0  0  0  0  0  0  0  0
    9.0128    6.2162   15.0052 H   0  0  0  0  0  0  0  0  0  0  0  0
    6.4962    3.6602   16.0373 H   0  0  0  0  0  0  0  0  0  0  0  0
    7.4091    4.3383   14.6871 H   0  0  0  0  0  0  0  0  0  0  0  0
    6.1172    5.2810   15.4344 H   0  0  0  0  0  0  0  0  0  0  0  0
   10.7104    3.8416   17.7573 H   0  0  0  0  0  0  0  0  0  0  0  0
    9.0408    6.2934   19.0173 H   0  0  0  0  0  0  0  0  0  0  0  0
    7.1494    6.6668   20.9534 H   0  0  0  0  0  0  0  0  0  0  0  0
    3.7958    5.3757   19.4189 H   0  0  0  0  0  0  0  0  0  0  0  0
    2.5738    3.6550   22.5161 H   0  0  0  0  0  0  0  0  0  0  0  0
    0.4125    3.5327   21.7592 H   0  0  0  0  0  0  0  0  0  0  0  0
    0.0953    5.2469   21.8970 H   0  0  0  0  0  0  0  0  0  0  0  0
   -0.5170    5.1540   24.1516 H   0  0  0  0  0  0  0  0  0  0  0  0
   -1.1419    3.6414   23.5131 H   0  0  0  0  0  0  0  0  0  0  0  0
    0.0115    3.2841   25.5400 H   0  0  0  0  0  0  0  0  0  0  0  0
    1.6119    4.7184   26.0123 H   0  0  0  0  0  0  0  0  0  0  0  0
    2.5617    3.4214   25.3008 H   0  0  0  0  0  0  0  0  0  0  0  0
    1.8233    6.1233   24.1455 H   0  0  0  0  0  0  0  0  0  0  0  0
    3.3841    5.3150   24.2129 H   0  0  0  0  0  0  0  0  0  0  0  0
  1  2  1  0
  2  3  1  0
  2  4  1  0
  4  5  2  0
  4  6  1  0
  2  7  1  0
  7  8  1  0
  8  9  2  0
  9 10  1  0
 10 11  1  0
 11 12  1  0
 12 13  2  0
 12 14  1  0
 14 15  1  0
 14 16  1  0
 14 17  1  0
 17 18  1  0
 18 19  1  0
 19 20  1  0
 20 21  1  0
 21 22  1  0
 10 23  2  0
 23  7  1  0
 22 17  1  0
  1 24  1  0
  1 25  1  0
  1 26  1  0
  3 27  1  0
  3 28  1  0
  3 29  1  0
  6 30  1  0
  8 31  1  0
  9 32  1  0
 11 33  1  0
 17 34  1  0
 18 35  1  0
 18 36  1  0
 19 37  1  0
 19 38  1  0
 20 39  1  0
 21 40  1  0
 21 41  1  0
 22 42  1  0
 22 43  1  0
M  END
>  <Energy>  (1018) 
20.598096109831772

>  <compound_id>  (1018) 
8568

>  <target_id>  (1018) 
1

>  <reference_id>  (1018) 
44

>  <inspiration_ids>  (1018) 
[81, 44]

>  <energy_score>  (1018) 
-60.063453937048536

>  <distance_score>  (1018) 
8.057506679468911

>  <path>  (1018) 
/opt/xchem-fragalysis-2/maxwin/BulkDock/SCRATCH/511016/C8568-P44/C8568-P44.minimised.mol

>  <scratch_subdir>  (1018) 
/opt/xchem-fragalysis-2/maxwin/BulkDock/SCRATCH/511016/C8568-P44

>  <fragmenstein_runtime>  (1018) 
12.967351913452148

>  <fragmenstein_outcome>  (1018) 
too moved

>  <fragmenstein_mode>  (1018) 
expansion

>  <fragmenstein_error>  (1018) 


$$$$
C8569-P81
     RDKit          3D

 47 48  0  0  0  0  0  0  0  0999 V2000
   10.2463    3.4590   16.5836 C   0  0  0  0  0  0  0  0  0  0  0  0
    9.3463    4.7013   16.7388 C   0  0  0  0  0  0  0  0  0  0  0  0
   10.0849    5.7129   17.6379 C   0  0  0  0  0  0  0  0  0  0  0  0
    9.1493    5.2907   15.3343 C   0  0  0  0  0  0  0  0  0  0  0  0
    9.1091    4.6572   14.2846 O   0  0  0  0  0  0  0  0  0  0  0  0
    8.9768    6.6279   15.3029 O   0  0  0  0  0  0  0  0  0  0  0  0
    8.0234    4.3298   17.2624 N   0  0  0  0  0  0  0  0  0  0  0  0
    7.1205    3.5387   16.6279 C   0  0  0  0  0  0  0  0  0  0  0  0
    5.9072    3.8366   17.2132 C   0  0  0  0  0  0  0  0  0  0  0  0
    6.1562    4.6691   18.3533 C   0  0  0  0  0  0  0  0  0  0  0  0
    5.2747    5.0633   19.4100 N   0  0  0  0  0  0  0  0  0  0  0  0
    3.6958    4.8208   19.5947 C   0  0  0  0  0  0  0  0  0  0  0  0
    2.9054    4.3324   18.8603 O   0  0  0  0  0  0  0  0  0  0  0  0
    3.1866    5.2719   21.1090 C   0  0  0  0  0  0  0  0  0  0  0  0
    2.1127    4.3146   21.8907 C   0  0  0  0  0  0  0  0  0  0  0  0
    1.2786    4.9092   23.0019 O   0  0  0  0  0  0  0  0  0  0  0  0
    0.7168    3.9585   23.9747 C   0  0  0  0  0  0  0  0  0  0  0  0
   -0.7829    4.1978   24.2459 C   0  0  0  0  0  0  0  0  0  0  0  0
   -1.3379    3.2931   25.3606 C   0  0  0  0  0  0  0  0  0  0  0  0
   -0.5745    3.3594   26.6001 N   0  0  0  0  0  0  0  0  0  0  0  0
    0.8486    3.1378   26.3946 C   0  0  0  0  0  0  0  0  0  0  0  0
    1.4387    4.0713   25.3288 C   0  0  0  0  0  0  0  0  0  0  0  0
    7.4944    4.9159   18.3886 N   0  0  0  0  0  0  0  0  0  0  0  0
   11.2022    3.7231   16.1153 H   0  0  0  0  0  0  0  0  0  0  0  0
    9.7856    2.6883   15.9550 H   0  0  0  0  0  0  0  0  0  0  0  0
   10.4683    2.9983   17.5464 H   0  0  0  0  0  0  0  0  0  0  0  0
    9.5003    6.6270   17.7954 H   0  0  0  0  0  0  0  0  0  0  0  0
   11.0390    6.0141   17.1894 H   0  0  0  0  0  0  0  0  0  0  0  0
   10.2989    5.2916   18.6253 H   0  0  0  0  0  0  0  0  0  0  0  0
    8.7895    6.8517   14.3674 H   0  0  0  0  0  0  0  0  0  0  0  0
    7.3724    2.9186   15.7892 H   0  0  0  0  0  0  0  0  0  0  0  0
    4.9413    3.4563   16.9120 H   0  0  0  0  0  0  0  0  0  0  0  0
    5.6325    5.5789   20.1980 H   0  0  0  0  0  0  0  0  0  0  0  0
    4.0606    5.3994   21.7564 H   0  0  0  0  0  0  0  0  0  0  0  0
    2.7277    6.2602   20.9903 H   0  0  0  0  0  0  0  0  0  0  0  0
    2.6691    3.4781   22.3245 H   0  0  0  0  0  0  0  0  0  0  0  0
    1.4012    3.9144   21.1610 H   0  0  0  0  0  0  0  0  0  0  0  0
    0.8387    2.9524   23.5777 H   0  0  0  0  0  0  0  0  0  0  0  0
   -1.3478    4.0384   23.3196 H   0  0  0  0  0  0  0  0  0  0  0  0
   -0.9377    5.2521   24.5106 H   0  0  0  0  0  0  0  0  0  0  0  0
   -2.3747    3.5815   25.5665 H   0  0  0  0  0  0  0  0  0  0  0  0
   -1.3629    2.2619   25.0100 H   0  0  0  0  0  0  0  0  0  0  0  0
   -0.9534    2.7159   27.2924 H   0  0  0  0  0  0  0  0  0  0  0  0
    1.3738    3.3039   27.3415 H   0  0  0  0  0  0  0  0  0  0  0  0
    1.0270    2.0951   26.1120 H   0  0  0  0  0  0  0  0  0  0  0  0
    1.4022    5.1121   25.6773 H   0  0  0  0  0  0  0  0  0  0  0  0
    2.5028    3.8450   25.1888 H   0  0  0  0  0  0  0  0  0  0  0  0
  1  2  1  0
  2  3  1  0
  2  4  1  0
  4  5  2  0
  4  6  1  0
  2  7  1  0
  7  8  1  0
  8  9  2  0
  9 10  1  0
 10 11  1  0
 11 12  1  0
 12 13  2  0
 12 14  1  0
 14 15  1  0
 15 16  1  0
 16 17  1  0
 17 18  1  0
 18 19  1  0
 19 20  1  0
 20 21  1  0
 21 22  1  0
 10 23  2  0
 23  7  1  0
 22 17  1  0
  1 24  1  0
  1 25  1  0
  1 26  1  0
  3 27  1  0
  3 28  1  0
  3 29  1  0
  6 30  1  0
  8 31  1  0
  9 32  1  0
 11 33  1  0
 14 34  1  0
 14 35  1  0
 15 36  1  0
 15 37  1  0
 17 38  1  0
 18 39  1  0
 18 40  1  0
 19 41  1  0
 19 42  1  0
 20 43  1  0
 21 44  1  0
 21 45  1  0
 22 46  1  0
 22 47  1  0
M  END
>  <Energy>  (1019) 
4.9537604011557521

>  <compound_id>  (1019) 
8569

>  <target_id>  (1019) 
1

>  <reference_id>  (1019) 
81

>  <inspiration_ids>  (1019) 
[81, 44]

>  <energy_score>  (1019) 
-17.87244969535942

>  <distance_score>  (1019) 
6.487553859266383

>  <path>  (1019) 
/opt/xchem-fragalysis-2/maxwin/BulkDock/SCRATCH/511016/C8569-P81/C8569-P81.minimised.mol

>  <scratch_subdir>  (1019) 
/opt/xchem-fragalysis-2/maxwin/BulkDock/SCRATCH/511016/C8569-P81

>  <fragmenstein_runtime>  (1019) 
7.820832252502441

>  <fragmenstein_outcome>  (1019) 
too moved

>  <fragmenstein_mode>  (1019) 
expansion

>  <fragmenstein_error>  (1019) 


$$$$
C8569-P44
     RDKit          3D

 47 48  0  0  0  0  0  0  0  0999 V2000
   10.1348    4.6688   15.4035 C   0  0  0  0  0  0  0  0  0  0  0  0
    8.8363    5.3607   15.8736 C   0  0  0  0  0  0  0  0  0  0  0  0
    9.1645    6.8511   16.0968 C   0  0  0  0  0  0  0  0  0  0  0  0
    7.7884    5.2653   14.7632 C   0  0  0  0  0  0  0  0  0  0  0  0
    8.0529    4.9406   13.6077 O   0  0  0  0  0  0  0  0  0  0  0  0
    6.5303    5.6142   15.1226 O   0  0  0  0  0  0  0  0  0  0  0  0
    8.3005    4.7515   17.0986 N   0  0  0  0  0  0  0  0  0  0  0  0
    8.5965    3.5362   17.6227 C   0  0  0  0  0  0  0  0  0  0  0  0
    7.8638    3.4984   18.7809 C   0  0  0  0  0  0  0  0  0  0  0  0
    7.0402    4.7358   18.8891 C   0  0  0  0  0  0  0  0  0  0  0  0
    6.0373    4.8416   19.9416 N   0  0  0  0  0  0  0  0  0  0  0  0
    4.9012    5.9515   20.1915 C   0  0  0  0  0  0  0  0  0  0  0  0
    4.6833    6.9639   19.6209 O   0  0  0  0  0  0  0  0  0  0  0  0
    3.8795    5.3334   21.4621 C   0  0  0  0  0  0  0  0  0  0  0  0
    2.8817    6.0460   22.5072 C   0  0  0  0  0  0  0  0  0  0  0  0
    1.5455    5.4236   22.8623 O   0  0  0  0  0  0  0  0  0  0  0  0
    1.3326    4.4855   23.9674 C   0  0  0  0  0  0  0  0  0  0  0  0
   -0.1372    3.9497   23.8774 C   0  0  0  0  0  0  0  0  0  0  0  0
   -0.7659    3.4876   25.2067 C   0  0  0  0  0  0  0  0  0  0  0  0
    0.2360    2.9638   26.1234 N   0  0  0  0  0  0  0  0  0  0  0  0
    1.2027    4.0101   26.4807 C   0  0  0  0  0  0  0  0  0  0  0  0
    1.4811    5.0654   25.3808 C   0  0  0  0  0  0  0  0  0  0  0  0
    7.3130    5.4381   17.7846 N   0  0  0  0  0  0  0  0  0  0  0  0
    9.9574    3.6270   15.1114 H   0  0  0  0  0  0  0  0  0  0  0  0
   10.8990    4.6767   16.1890 H   0  0  0  0  0  0  0  0  0  0  0  0
   10.5585    5.1722   14.5260 H   0  0  0  0  0  0  0  0  0  0  0  0
    8.2731    7.4387   16.3455 H   0  0  0  0  0  0  0  0  0  0  0  0
    9.8845    6.9791   16.9133 H   0  0  0  0  0  0  0  0  0  0  0  0
    9.5921    7.3007   15.1927 H   0  0  0  0  0  0  0  0  0  0  0  0
    6.4201    5.7781   16.0960 H   0  0  0  0  0  0  0  0  0  0  0  0
    9.2827    2.8288   17.1821 H   0  0  0  0  0  0  0  0  0  0  0  0
    7.8398    2.6620   19.4611 H   0  0  0  0  0  0  0  0  0  0  0  0
    5.9895    4.1327   20.6705 H   0  0  0  0  0  0  0  0  0  0  0  0
    3.1960    4.6999   20.8853 H   0  0  0  0  0  0  0  0  0  0  0  0
    4.5210    4.7072   22.0859 H   0  0  0  0  0  0  0  0  0  0  0  0
    3.4117    6.2441   23.4441 H   0  0  0  0  0  0  0  0  0  0  0  0
    2.6167    7.0153   22.0719 H   0  0  0  0  0  0  0  0  0  0  0  0
    2.0339    3.6547   23.8255 H   0  0  0  0  0  0  0  0  0  0  0  0
   -0.7793    4.7292   23.4460 H   0  0  0  0  0  0  0  0  0  0  0  0
   -0.1618    3.1348   23.1487 H   0  0  0  0  0  0  0  0  0  0  0  0
   -1.3016    4.3230   25.6755 H   0  0  0  0  0  0  0  0  0  0  0  0
   -1.5185    2.7190   24.9989 H   0  0  0  0  0  0  0  0  0  0  0  0
   -0.2205    2.6307   26.9742 H   0  0  0  0  0  0  0  0  0  0  0  0
    0.8649    4.5328   27.3838 H   0  0  0  0  0  0  0  0  0  0  0  0
    2.1439    3.5127   26.7412 H   0  0  0  0  0  0  0  0  0  0  0  0
    0.7922    5.9131   25.4935 H   0  0  0  0  0  0  0  0  0  0  0  0
    2.4855    5.4819   25.5161 H   0  0  0  0  0  0  0  0  0  0  0  0
  1  2  1  0
  2  3  1  0
  2  4  1  0
  4  5  2  0
  4  6  1  0
  2  7  1  0
  7  8  1  0
  8  9  2  0
  9 10  1  0
 10 11  1  0
 11 12  1  0
 12 13  2  0
 12 14  1  0
 14 15  1  0
 15 16  1  0
 16 17  1  0
 17 18  1  0
 18 19  1  0
 19 20  1  0
 20 21  1  0
 21 22  1  0
 10 23  2  0
 23  7  1  0
 22 17  1  0
  1 24  1  0
  1 25  1  0
  1 26  1  0
  3 27  1  0
  3 28  1  0
  3 29  1  0
  6 30  1  0
  8 31  1  0
  9 32  1  0
 11 33  1  0
 14 34  1  0
 14 35  1  0
 15 36  1  0
 15 37  1  0
 17 38  1  0
 18 39  1  0
 18 40  1  0
 19 41  1  0
 19 42  1  0
 20 43  1  0
 21 44  1  0
 21 45  1  0
 22 46  1  0
 22 47  1  0
M  END
>  <Energy>  (1020) 
38.26631468219157

>  <compound_id>  (1020) 
8569

>  <target_id>  (1020) 
1

>  <reference_id>  (1020) 
44

>  <inspiration_ids>  (1020) 
[81, 44]

>  <energy_score>  (1020) 
15.440104585673737

>  <distance_score>  (1020) 
6.441761721618117

>  <path>  (1020) 
/opt/xchem-fragalysis-2/maxwin/BulkDock/SCRATCH/511016/C8569-P44/C8569-P44.minimised.mol

>  <scratch_subdir>  (1020) 
/opt/xchem-fragalysis-2/maxwin/BulkDock/SCRATCH/511016/C8569-P44

>  <fragmenstein_runtime>  (1020) 
7.964010238647461

>  <fragmenstein_outcome>  (1020) 
too moved

>  <fragmenstein_mode>  (1020) 
expansion

>  <fragmenstein_error>  (1020) 


$$$$
C8570-P81
     RDKit          3D

 53 54  0  0  0  0  0  0  0  0999 V2000
    1.0618    3.6898   21.3213 C   0  0  0  0  0  0  0  0  0  0  0  0
    2.5626    3.3877   21.2565 C   0  0  0  0  0  0  0  0  0  0  0  0
    2.9986    1.8921   21.7946 C   0  0  0  0  0  0  0  0  0  0  0  0
    4.5842    1.4166   22.5222 N   0  0  0  0  0  0  0  0  0  0  0  0
    5.4835   -0.0305   21.7363 C   0  0  0  0  0  0  0  0  0  0  0  0
    5.3103   -1.1795   22.1123 O   0  0  0  0  0  0  0  0  0  0  0  0
    6.9884    0.2497   20.3060 C   0  0  0  0  0  0  0  0  0  0  0  0
    7.7079    1.1220   20.6682 O   0  0  0  0  0  0  0  0  0  0  0  0
    7.1014   -0.4766   18.8437 N   0  0  0  0  0  0  0  0  0  0  0  0
    8.1806   -0.1153   17.3543 C   0  0  0  0  0  0  0  0  0  0  0  0
    8.6469   -1.0830   16.0086 C   0  0  0  0  0  0  0  0  0  0  0  0
   10.1061   -1.3910   15.6234 C   0  0  0  0  0  0  0  0  0  0  0  0
    8.7606    1.3355   16.9899 C   0  0  0  0  0  0  0  0  0  0  0  0
   10.0561    1.6286   16.4478 C   0  0  0  0  0  0  0  0  0  0  0  0
   10.0760    2.9748   16.1850 C   0  0  0  0  0  0  0  0  0  0  0  0
    8.8492    3.4232   16.5463 N   0  0  0  0  0  0  0  0  0  0  0  0
    8.3684    4.7820   16.5046 C   0  0  0  0  0  0  0  0  0  0  0  0
    8.0222    2.4529   16.9447 N   0  0  0  0  0  0  0  0  0  0  0  0
    3.4467    1.4974   24.0171 C   0  0  0  0  0  0  0  0  0  0  0  0
    3.9019    0.7127   25.3612 C   0  0  0  0  0  0  0  0  0  0  0  0
    2.9688    0.8765   26.5811 C   0  0  0  0  0  0  0  0  0  0  0  0
    2.0962    2.0521   26.5538 N   0  0  0  0  0  0  0  0  0  0  0  0
    2.8083    3.1902   25.9914 C   0  0  0  0  0  0  0  0  0  0  0  0
    2.9557    3.0068   24.4784 C   0  0  0  0  0  0  0  0  0  0  0  0
    0.6214    3.4483   22.2913 H   0  0  0  0  0  0  0  0  0  0  0  0
    0.8958    4.7572   21.1390 H   0  0  0  0  0  0  0  0  0  0  0  0
    0.5185    3.1500   20.5455 H   0  0  0  0  0  0  0  0  0  0  0  0
    2.8290    3.5493   20.2070 H   0  0  0  0  0  0  0  0  0  0  0  0
    3.0665    4.1517   21.8629 H   0  0  0  0  0  0  0  0  0  0  0  0
    2.4996    1.1240   21.3106 H   0  0  0  0  0  0  0  0  0  0  0  0
    2.3229    2.0787   22.5745 H   0  0  0  0  0  0  0  0  0  0  0  0
    6.3246   -1.1240   18.7458 H   0  0  0  0  0  0  0  0  0  0  0  0
    7.2850   -0.0786   16.7401 H   0  0  0  0  0  0  0  0  0  0  0  0
    7.9877   -1.9386   15.8410 H   0  0  0  0  0  0  0  0  0  0  0  0
    8.3779   -0.4854   15.1316 H   0  0  0  0  0  0  0  0  0  0  0  0
   10.4287   -0.7347   14.8055 H   0  0  0  0  0  0  0  0  0  0  0  0
   10.1832   -2.4072   15.2219 H   0  0  0  0  0  0  0  0  0  0  0  0
   10.8498   -1.2890   16.4090 H   0  0  0  0  0  0  0  0  0  0  0  0
   10.8920    0.9711   16.2738 H   0  0  0  0  0  0  0  0  0  0  0  0
   10.8476    3.6289   15.8045 H   0  0  0  0  0  0  0  0  0  0  0  0
    9.1683    5.4404   16.1570 H   0  0  0  0  0  0  0  0  0  0  0  0
    8.0603    5.0702   17.5129 H   0  0  0  0  0  0  0  0  0  0  0  0
    7.5211    4.8273   15.8155 H   0  0  0  0  0  0  0  0  0  0  0  0
    2.4701    1.0951   23.9407 H   0  0  0  0  0  0  0  0  0  0  0  0
    4.0236   -0.3594   25.1721 H   0  0  0  0  0  0  0  0  0  0  0  0
    4.8594    1.0500   25.7438 H   0  0  0  0  0  0  0  0  0  0  0  0
    3.5981    0.9327   27.4803 H   0  0  0  0  0  0  0  0  0  0  0  0
    2.3650   -0.0239   26.7307 H   0  0  0  0  0  0  0  0  0  0  0  0
    1.8116    2.2634   27.5107 H   0  0  0  0  0  0  0  0  0  0  0  0
    2.2250    4.1001   26.1751 H   0  0  0  0  0  0  0  0  0  0  0  0
    3.7744    3.3404   26.4864 H   0  0  0  0  0  0  0  0  0  0  0  0
    1.9467    3.1846   24.0849 H   0  0  0  0  0  0  0  0  0  0  0  0
    3.5581    3.8117   24.0475 H   0  0  0  0  0  0  0  0  0  0  0  0
  1  2  1  0
  2  3  1  0
  3  4  1  0
  4  5  1  0
  5  6  2  0
  5  7  1  0
  7  8  2  0
  7  9  1  0
  9 10  1  0
 10 11  1  0
 11 12  1  0
 10 13  1  0
 13 14  1  0
 14 15  2  0
 15 16  1  0
 16 17  1  0
 16 18  1  0
  4 19  1  0
 19 20  1  0
 20 21  1  0
 21 22  1  0
 22 23  1  0
 23 24  1  0
 18 13  2  0
 24 19  1  0
  1 25  1  0
  1 26  1  0
  1 27  1  0
  2 28  1  0
  2 29  1  0
  3 30  1  0
  3 31  1  0
  9 32  1  0
 10 33  1  0
 11 34  1  0
 11 35  1  0
 12 36  1  0
 12 37  1  0
 12 38  1  0
 14 39  1  0
 15 40  1  0
 17 41  1  0
 17 42  1  0
 17 43  1  0
 19 44  1  0
 20 45  1  0
 20 46  1  0
 21 47  1  0
 21 48  1  0
 22 49  1  0
 23 50  1  0
 23 51  1  0
 24 52  1  0
 24 53  1  0
M  END
>  <Energy>  (1021) 
549.03329991021042

>  <compound_id>  (1021) 
8570

>  <target_id>  (1021) 
1

>  <reference_id>  (1021) 
81

>  <inspiration_ids>  (1021) 
[81, 44]

>  <energy_score>  (1021) 
453.98886353107935

>  <distance_score>  (1021) 
5.527075349279468

>  <path>  (1021) 
/opt/xchem-fragalysis-2/maxwin/BulkDock/SCRATCH/511016/C8570-P81/C8570-P81.minimised.mol

>  <scratch_subdir>  (1021) 
/opt/xchem-fragalysis-2/maxwin/BulkDock/SCRATCH/511016/C8570-P81

>  <fragmenstein_runtime>  (1021) 
16.198081254959106

>  <fragmenstein_outcome>  (1021) 
too moved

>  <fragmenstein_mode>  (1021) 
expansion

>  <fragmenstein_error>  (1021) 


$$$$
C8570-P44
     RDKit          3D

 53 54  0  0  0  0  0  0  0  0999 V2000
    1.5666    4.4009   20.1253 C   0  0  0  0  0  0  0  0  0  0  0  0
    1.4279    4.1406   21.6199 C   0  0  0  0  0  0  0  0  0  0  0  0
    1.3682    5.4334   22.4655 C   0  0  0  0  0  0  0  0  0  0  0  0
    2.6002    5.9536   23.2081 N   0  0  0  0  0  0  0  0  0  0  0  0
    3.8022    5.4870   22.5628 C   0  0  0  0  0  0  0  0  0  0  0  0
    4.4573    4.4974   22.7541 O   0  0  0  0  0  0  0  0  0  0  0  0
    4.2436    6.4034   21.3360 C   0  0  0  0  0  0  0  0  0  0  0  0
    3.6449    7.4239   21.1562 O   0  0  0  0  0  0  0  0  0  0  0  0
    5.2944    5.7787   20.5661 N   0  0  0  0  0  0  0  0  0  0  0  0
    5.8896    6.1450   19.2762 C   0  0  0  0  0  0  0  0  0  0  0  0
    6.1336    7.6640   19.1665 C   0  0  0  0  0  0  0  0  0  0  0  0
    6.6230    8.1002   17.7901 C   0  0  0  0  0  0  0  0  0  0  0  0
    7.1683    5.3464   19.0050 C   0  0  0  0  0  0  0  0  0  0  0  0
    7.4517    4.4320   17.9488 C   0  0  0  0  0  0  0  0  0  0  0  0
    8.7650    4.0591   18.1269 C   0  0  0  0  0  0  0  0  0  0  0  0
    9.1981    4.7440   19.2212 N   0  0  0  0  0  0  0  0  0  0  0  0
   10.5072    4.7321   19.8245 C   0  0  0  0  0  0  0  0  0  0  0  0
    8.2478    5.5047   19.7877 N   0  0  0  0  0  0  0  0  0  0  0  0
    1.8309    5.3958   24.4294 C   0  0  0  0  0  0  0  0  0  0  0  0
    1.5104    3.8804   24.6273 C   0  0  0  0  0  0  0  0  0  0  0  0
    1.1469    3.5738   26.0812 C   0  0  0  0  0  0  0  0  0  0  0  0
    0.0459    4.4253   26.5169 N   0  0  0  0  0  0  0  0  0  0  0  0
    0.4422    5.8342   26.5236 C   0  0  0  0  0  0  0  0  0  0  0  0
    0.8058    6.3384   25.1221 C   0  0  0  0  0  0  0  0  0  0  0  0
    2.5210    4.8692   19.8788 H   0  0  0  0  0  0  0  0  0  0  0  0
    0.7618    5.0495   19.7639 H   0  0  0  0  0  0  0  0  0  0  0  0
    1.5010    3.4606   19.5729 H   0  0  0  0  0  0  0  0  0  0  0  0
    0.4717    3.6178   21.7490 H   0  0  0  0  0  0  0  0  0  0  0  0
    2.1991    3.4534   21.9681 H   0  0  0  0  0  0  0  0  0  0  0  0
    0.3667    5.5399   22.9032 H   0  0  0  0  0  0  0  0  0  0  0  0
    1.2794    6.2376   21.7149 H   0  0  0  0  0  0  0  0  0  0  0  0
    5.5117    4.8640   20.9770 H   0  0  0  0  0  0  0  0  0  0  0  0
    5.1420    5.8605   18.5248 H   0  0  0  0  0  0  0  0  0  0  0  0
    6.8516    7.9933   19.9280 H   0  0  0  0  0  0  0  0  0  0  0  0
    5.2021    8.2043   19.3667 H   0  0  0  0  0  0  0  0  0  0  0  0
    6.6907    9.1921   17.7459 H   0  0  0  0  0  0  0  0  0  0  0  0
    5.9324    7.7725   17.0066 H   0  0  0  0  0  0  0  0  0  0  0  0
    7.6163    7.6991   17.5676 H   0  0  0  0  0  0  0  0  0  0  0  0
    6.7858    4.0970   17.1661 H   0  0  0  0  0  0  0  0  0  0  0  0
    9.4087    3.3889   17.5768 H   0  0  0  0  0  0  0  0  0  0  0  0
   11.2388    5.0304   19.0713 H   0  0  0  0  0  0  0  0  0  0  0  0
   10.6963    3.7313   20.2176 H   0  0  0  0  0  0  0  0  0  0  0  0
   10.5350    5.4507   20.6491 H   0  0  0  0  0  0  0  0  0  0  0  0
    2.6833    5.4849   25.1282 H   0  0  0  0  0  0  0  0  0  0  0  0
    2.3725    3.2702   24.3346 H   0  0  0  0  0  0  0  0  0  0  0  0
    0.6587    3.5662   24.0158 H   0  0  0  0  0  0  0  0  0  0  0  0
    2.0188    3.6983   26.7347 H   0  0  0  0  0  0  0  0  0  0  0  0
    0.8373    2.5266   26.1608 H   0  0  0  0  0  0  0  0  0  0  0  0
   -0.2450    4.1621   27.4602 H   0  0  0  0  0  0  0  0  0  0  0  0
   -0.3897    6.4342   26.9096 H   0  0  0  0  0  0  0  0  0  0  0  0
    1.2841    5.9865   27.2103 H   0  0  0  0  0  0  0  0  0  0  0  0
   -0.1210    6.4422   24.5486 H   0  0  0  0  0  0  0  0  0  0  0  0
    1.2305    7.3470   25.1983 H   0  0  0  0  0  0  0  0  0  0  0  0
  1  2  1  0
  2  3  1  0
  3  4  1  0
  4  5  1  0
  5  6  2  0
  5  7  1  0
  7  8  2  0
  7  9  1  0
  9 10  1  0
 10 11  1  0
 11 12  1  0
 10 13  1  0
 13 14  1  0
 14 15  2  0
 15 16  1  0
 16 17  1  0
 16 18  1  0
  4 19  1  0
 19 20  1  0
 20 21  1  0
 21 22  1  0
 22 23  1  0
 23 24  1  0
 18 13  2  0
 24 19  1  0
  1 25  1  0
  1 26  1  0
  1 27  1  0
  2 28  1  0
  2 29  1  0
  3 30  1  0
  3 31  1  0
  9 32  1  0
 10 33  1  0
 11 34  1  0
 11 35  1  0
 12 36  1  0
 12 37  1  0
 12 38  1  0
 14 39  1  0
 15 40  1  0
 17 41  1  0
 17 42  1  0
 17 43  1  0
 19 44  1  0
 20 45  1  0
 20 46  1  0
 21 47  1  0
 21 48  1  0
 22 49  1  0
 23 50  1  0
 23 51  1  0
 24 52  1  0
 24 53  1  0
M  END
>  <Energy>  (1022) 
141.6039875580891

>  <compound_id>  (1022) 
8570

>  <target_id>  (1022) 
1

>  <reference_id>  (1022) 
44

>  <inspiration_ids>  (1022) 
[81, 44]

>  <energy_score>  (1022) 
46.55955117896099

>  <distance_score>  (1022) 
7.006453695301268

>  <path>  (1022) 
/opt/xchem-fragalysis-2/maxwin/BulkDock/SCRATCH/511016/C8570-P44/C8570-P44.minimised.mol

>  <scratch_subdir>  (1022) 
/opt/xchem-fragalysis-2/maxwin/BulkDock/SCRATCH/511016/C8570-P44

>  <fragmenstein_runtime>  (1022) 
15.405450344085693

>  <fragmenstein_outcome>  (1022) 
too moved

>  <fragmenstein_mode>  (1022) 
expansion

>  <fragmenstein_error>  (1022) 


$$$$
C8573-P81
     RDKit          3D

 45 48  0  0  0  0  0  0  0  0999 V2000
    5.6463   -1.3399   21.9184 O   0  0  0  0  0  0  0  0  0  0  0  0
    5.7975   -0.2541   21.3680 C   0  0  0  0  0  0  0  0  0  0  0  0
    4.3014    0.9194   21.8476 C   0  0  0  0  0  0  0  0  0  0  0  0
    4.3429    1.9694   22.7055 N   0  0  0  0  0  0  0  0  0  0  0  0
    3.2876    3.0936   22.4310 N   0  0  0  0  0  0  0  0  0  0  0  0
    2.2440    2.4693   21.8431 C   0  0  0  0  0  0  0  0  0  0  0  0
    2.8817    1.5575   22.7021 C   0  0  0  0  0  0  0  0  0  0  0  0
    2.6497    1.8739   24.5053 C   0  0  0  0  0  0  0  0  0  0  0  0
    1.3203    2.6345   24.8707 C   0  0  0  0  0  0  0  0  0  0  0  0
    0.8901    2.5211   26.3320 C   0  0  0  0  0  0  0  0  0  0  0  0
    2.0305    2.3615   27.2216 N   0  0  0  0  0  0  0  0  0  0  0  0
    2.6588    1.0641   26.9783 C   0  0  0  0  0  0  0  0  0  0  0  0
    3.2542    0.9181   25.5709 C   0  0  0  0  0  0  0  0  0  0  0  0
    7.3381    0.0342   20.1380 N   0  0  0  0  0  0  0  0  0  0  0  0
    8.6966   -0.9912   19.7322 C   0  0  0  0  0  0  0  0  0  0  0  0
   10.1460   -2.6509   20.0759 C   0  0  0  0  0  0  0  0  0  0  0  0
   11.5838   -2.7216   18.2747 C   0  0  0  0  0  0  0  0  0  0  0  0
   10.5899   -1.7687   16.7305 C   0  0  0  0  0  0  0  0  0  0  0  0
   11.1295   -1.5599   15.5432 N   0  0  0  0  0  0  0  0  0  0  0  0
   10.1912   -0.8349   14.8658 N   0  0  0  0  0  0  0  0  0  0  0  0
    9.1276   -0.2215   15.5300 C   0  0  0  0  0  0  0  0  0  0  0  0
    8.8891   -0.7687   16.7655 C   0  0  0  0  0  0  0  0  0  0  0  0
    7.5044   -0.2395   18.1779 C   0  0  0  0  0  0  0  0  0  0  0  0
    3.5364    4.0570   22.6403 H   0  0  0  0  0  0  0  0  0  0  0  0
    1.3284    3.0356   21.7826 H   0  0  0  0  0  0  0  0  0  0  0  0
    3.2934    2.7463   24.6613 H   0  0  0  0  0  0  0  0  0  0  0  0
    0.4688    2.3876   24.2362 H   0  0  0  0  0  0  0  0  0  0  0  0
    1.4885    3.7022   24.6602 H   0  0  0  0  0  0  0  0  0  0  0  0
    0.3450    3.4310   26.6093 H   0  0  0  0  0  0  0  0  0  0  0  0
    0.1821    1.6959   26.4686 H   0  0  0  0  0  0  0  0  0  0  0  0
    1.7107    2.3938   28.1894 H   0  0  0  0  0  0  0  0  0  0  0  0
    3.4600    0.9209   27.7134 H   0  0  0  0  0  0  0  0  0  0  0  0
    1.9382    0.2594   27.1707 H   0  0  0  0  0  0  0  0  0  0  0  0
    4.3225    1.1139   25.6735 H   0  0  0  0  0  0  0  0  0  0  0  0
    3.2288   -0.1385   25.2973 H   0  0  0  0  0  0  0  0  0  0  0  0
    8.0523   -1.5508   19.2477 H   0  0  0  0  0  0  0  0  0  0  0  0
    9.0638   -0.5551   18.9487 H   0  0  0  0  0  0  0  0  0  0  0  0
    9.2355   -3.4854   20.1771 H   0  0  0  0  0  0  0  0  0  0  0  0
   10.9990   -3.2772   20.9368 H   0  0  0  0  0  0  0  0  0  0  0  0
   11.6844   -3.7398   17.7751 H   0  0  0  0  0  0  0  0  0  0  0  0
   12.6513   -2.4063   18.2441 H   0  0  0  0  0  0  0  0  0  0  0  0
   10.3543   -0.7509   13.8675 H   0  0  0  0  0  0  0  0  0  0  0  0
    8.6244    0.5694   15.0266 H   0  0  0  0  0  0  0  0  0  0  0  0
    6.5621   -0.7593   17.9079 H   0  0  0  0  0  0  0  0  0  0  0  0
    7.8428    0.7918   17.8849 H   0  0  0  0  0  0  0  0  0  0  0  0
  1  2  2  0
  2  3  1  0
  3  4  2  0
  4  5  1  0
  5  6  1  0
  6  7  2  0
  7  8  1  0
  8  9  1  0
  9 10  1  0
 10 11  1  0
 11 12  1  0
 12 13  1  0
  2 14  1  0
 14 15  1  0
 15 16  1  0
 16 17  1  0
 17 18  1  0
 18 19  2  0
 19 20  1  0
 20 21  1  0
 21 22  2  0
 22 23  1  0
  7  3  1  0
 13  8  1  0
 23 14  1  0
 22 18  1  0
  5 24  1  0
  6 25  1  0
  8 26  1  0
  9 27  1  0
  9 28  1  0
 10 29  1  0
 10 30  1  0
 11 31  1  0
 12 32  1  0
 12 33  1  0
 13 34  1  0
 13 35  1  0
 15 36  1  0
 15 37  1  0
 16 38  1  0
 16 39  1  0
 17 40  1  0
 17 41  1  0
 20 42  1  0
 21 43  1  0
 23 44  1  0
 23 45  1  0
M  END
>  <Energy>  (1023) 
1444.9747477600883

>  <compound_id>  (1023) 
8573

>  <target_id>  (1023) 
1

>  <reference_id>  (1023) 
81

>  <inspiration_ids>  (1023) 
[81, 44]

>  <energy_score>  (1023) 
1336.9634465803142

>  <distance_score>  (1023) 
3.949354143086828

>  <path>  (1023) 
/opt/xchem-fragalysis-2/maxwin/BulkDock/SCRATCH/511016/C8573-P81/C8573-P81.minimised.mol

>  <scratch_subdir>  (1023) 
/opt/xchem-fragalysis-2/maxwin/BulkDock/SCRATCH/511016/C8573-P81

>  <fragmenstein_runtime>  (1023) 
4.949811220169067

>  <fragmenstein_outcome>  (1023) 
too moved

>  <fragmenstein_mode>  (1023) 
expansion

>  <fragmenstein_error>  (1023) 


$$$$
C8573-P44
     RDKit          3D

 45 48  0  0  0  0  0  0  0  0999 V2000
    6.0279   -2.6854   20.7747 O   0  0  0  0  0  0  0  0  0  0  0  0
    6.1781   -1.4616   20.8240 C   0  0  0  0  0  0  0  0  0  0  0  0
    4.8541   -0.7100   22.0922 C   0  0  0  0  0  0  0  0  0  0  0  0
    4.5354   -1.8340   22.9724 N   0  0  0  0  0  0  0  0  0  0  0  0
    4.8372   -1.7731   24.2542 N   0  0  0  0  0  0  0  0  0  0  0  0
    5.0047   -0.5774   24.7817 C   0  0  0  0  0  0  0  0  0  0  0  0
    4.9074    0.2881   23.6892 C   0  0  0  0  0  0  0  0  0  0  0  0
    4.0855    1.6331   24.3120 C   0  0  0  0  0  0  0  0  0  0  0  0
    3.4418    2.7475   23.5014 C   0  0  0  0  0  0  0  0  0  0  0  0
    2.4491    3.5400   24.3698 C   0  0  0  0  0  0  0  0  0  0  0  0
    3.0837    4.1095   25.5571 N   0  0  0  0  0  0  0  0  0  0  0  0
    3.7927    3.1092   26.3470 C   0  0  0  0  0  0  0  0  0  0  0  0
    4.8096    2.3308   25.5013 C   0  0  0  0  0  0  0  0  0  0  0  0
    7.5738   -0.5808   20.0407 N   0  0  0  0  0  0  0  0  0  0  0  0
    8.6729   -1.0390   19.4217 C   0  0  0  0  0  0  0  0  0  0  0  0
   10.0846   -2.5378   20.3656 C   0  0  0  0  0  0  0  0  0  0  0  0
   11.6128   -2.6170   18.6175 C   0  0  0  0  0  0  0  0  0  0  0  0
   10.6930   -1.6345   17.0395 C   0  0  0  0  0  0  0  0  0  0  0  0
   11.1365   -1.6814   15.7884 N   0  0  0  0  0  0  0  0  0  0  0  0
   10.2321   -0.9616   15.0444 N   0  0  0  0  0  0  0  0  0  0  0  0
    9.1948   -0.2385   15.6410 C   0  0  0  0  0  0  0  0  0  0  0  0
    9.1087   -0.4878   16.9920 C   0  0  0  0  0  0  0  0  0  0  0  0
    7.6440    0.1176   18.2753 C   0  0  0  0  0  0  0  0  0  0  0  0
    4.8705   -2.6459   24.7664 H   0  0  0  0  0  0  0  0  0  0  0  0
    5.0170   -0.4325   25.8502 H   0  0  0  0  0  0  0  0  0  0  0  0
    3.2438    1.1192   24.7994 H   0  0  0  0  0  0  0  0  0  0  0  0
    2.8990    2.3774   22.6368 H   0  0  0  0  0  0  0  0  0  0  0  0
    4.2083    3.4504   23.1572 H   0  0  0  0  0  0  0  0  0  0  0  0
    2.0315    4.3576   23.7718 H   0  0  0  0  0  0  0  0  0  0  0  0
    1.6075    2.9061   24.6686 H   0  0  0  0  0  0  0  0  0  0  0  0
    2.3811    4.5751   26.1314 H   0  0  0  0  0  0  0  0  0  0  0  0
    4.3211    3.6154   27.1622 H   0  0  0  0  0  0  0  0  0  0  0  0
    3.0776    2.4184   26.8101 H   0  0  0  0  0  0  0  0  0  0  0  0
    5.5811    3.0154   25.1261 H   0  0  0  0  0  0  0  0  0  0  0  0
    5.3292    1.6268   26.1560 H   0  0  0  0  0  0  0  0  0  0  0  0
    9.0785   -0.2113   20.1299 H   0  0  0  0  0  0  0  0  0  0  0  0
    9.2062   -0.0582   19.0814 H   0  0  0  0  0  0  0  0  0  0  0  0
    9.1477   -3.3222   20.3875 H   0  0  0  0  0  0  0  0  0  0  0  0
   10.7907   -2.9880   21.2578 H   0  0  0  0  0  0  0  0  0  0  0  0
   11.8117   -3.6260   18.1424 H   0  0  0  0  0  0  0  0  0  0  0  0
   12.6197   -2.1292   18.5736 H   0  0  0  0  0  0  0  0  0  0  0  0
   10.3614   -1.0088   14.0366 H   0  0  0  0  0  0  0  0  0  0  0  0
    8.5731    0.3622   14.9997 H   0  0  0  0  0  0  0  0  0  0  0  0
    7.8103    1.1990   18.3772 H   0  0  0  0  0  0  0  0  0  0  0  0
    6.7405   -0.2630   17.8137 H   0  0  0  0  0  0  0  0  0  0  0  0
  1  2  2  0
  2  3  1  0
  3  4  2  0
  4  5  1  0
  5  6  1  0
  6  7  2  0
  7  8  1  0
  8  9  1  0
  9 10  1  0
 10 11  1  0
 11 12  1  0
 12 13  1  0
  2 14  1  0
 14 15  1  0
 15 16  1  0
 16 17  1  0
 17 18  1  0
 18 19  2  0
 19 20  1  0
 20 21  1  0
 21 22  2  0
 22 23  1  0
  7  3  1  0
 13  8  1  0
 23 14  1  0
 22 18  1  0
  5 24  1  0
  6 25  1  0
  8 26  1  0
  9 27  1  0
  9 28  1  0
 10 29  1  0
 10 30  1  0
 11 31  1  0
 12 32  1  0
 12 33  1  0
 13 34  1  0
 13 35  1  0
 15 36  1  0
 15 37  1  0
 16 38  1  0
 16 39  1  0
 17 40  1  0
 17 41  1  0
 20 42  1  0
 21 43  1  0
 23 44  1  0
 23 45  1  0
M  END
>  <Energy>  (1024) 
1157.889627964692

>  <compound_id>  (1024) 
8573

>  <target_id>  (1024) 
1

>  <reference_id>  (1024) 
44

>  <inspiration_ids>  (1024) 
[81, 44]

>  <energy_score>  (1024) 
1049.8783267849394

>  <distance_score>  (1024) 
5.233428161595395

>  <path>  (1024) 
/opt/xchem-fragalysis-2/maxwin/BulkDock/SCRATCH/511016/C8573-P44/C8573-P44.minimised.mol

>  <scratch_subdir>  (1024) 
/opt/xchem-fragalysis-2/maxwin/BulkDock/SCRATCH/511016/C8573-P44

>  <fragmenstein_runtime>  (1024) 
6.438190221786499

>  <fragmenstein_outcome>  (1024) 
too moved

>  <fragmenstein_mode>  (1024) 
expansion

>  <fragmenstein_error>  (1024) 


$$$$
C8575-P81
     RDKit          3D

 44 46  0  0  0  0  0  0  0  0999 V2000
    7.8068   -0.5408   16.2883 C   0  0  0  0  0  0  0  0  0  0  0  0
    8.2070    0.1829   17.5648 C   0  0  0  0  0  0  0  0  0  0  0  0
    7.6844   -0.6177   19.3008 C   0  0  0  0  0  0  0  0  0  0  0  0
    7.0117    0.2723   20.3518 C   0  0  0  0  0  0  0  0  0  0  0  0
    7.4604    1.3843   20.2743 O   0  0  0  0  0  0  0  0  0  0  0  0
    5.5510   -0.0841   21.5181 N   0  0  0  0  0  0  0  0  0  0  0  0
    4.5112    1.0278   22.5245 C   0  0  0  0  0  0  0  0  0  0  0  0
    3.1592    1.8162   22.0932 C   0  0  0  0  0  0  0  0  0  0  0  0
    2.5482    2.6102   22.9842 N   0  0  0  0  0  0  0  0  0  0  0  0
    2.9528    2.1365   24.1559 N   0  0  0  0  0  0  0  0  0  0  0  0
    2.1777    2.5111   25.3405 C   0  0  0  0  0  0  0  0  0  0  0  0
    2.0538    4.0330   25.5340 C   0  0  0  0  0  0  0  0  0  0  0  0
    1.7244    4.4103   26.9816 C   0  0  0  0  0  0  0  0  0  0  0  0
    0.8775    3.4220   27.6440 N   0  0  0  0  0  0  0  0  0  0  0  0
    1.5231    2.1130   27.7308 C   0  0  0  0  0  0  0  0  0  0  0  0
    2.5925    1.8575   26.6631 C   0  0  0  0  0  0  0  0  0  0  0  0
    3.9204    1.1580   24.0205 C   0  0  0  0  0  0  0  0  0  0  0  0
    9.5754    0.6193   16.9648 N   0  0  0  0  0  0  0  0  0  0  0  0
    9.8902    1.8764   16.4818 C   0  0  0  0  0  0  0  0  0  0  0  0
   11.0085    1.7316   15.6931 C   0  0  0  0  0  0  0  0  0  0  0  0
   11.2852    0.3562   15.7039 C   0  0  0  0  0  0  0  0  0  0  0  0
   10.4179   -0.3273   16.4531 N   0  0  0  0  0  0  0  0  0  0  0  0
    8.3859   -1.4360   16.0350 H   0  0  0  0  0  0  0  0  0  0  0  0
    8.0146    0.1095   15.4492 H   0  0  0  0  0  0  0  0  0  0  0  0
    6.8000   -0.8534   16.3396 H   0  0  0  0  0  0  0  0  0  0  0  0
    7.9065    1.2354   17.6472 H   0  0  0  0  0  0  0  0  0  0  0  0
    8.4892   -0.5322   19.9754 H   0  0  0  0  0  0  0  0  0  0  0  0
    8.2125   -1.4735   19.1993 H   0  0  0  0  0  0  0  0  0  0  0  0
    5.3702   -1.0717   21.5195 H   0  0  0  0  0  0  0  0  0  0  0  0
    2.7462    1.9017   21.1032 H   0  0  0  0  0  0  0  0  0  0  0  0
    1.1639    2.1596   25.1110 H   0  0  0  0  0  0  0  0  0  0  0  0
    2.9825    4.5392   25.2416 H   0  0  0  0  0  0  0  0  0  0  0  0
    1.2693    4.4139   24.8671 H   0  0  0  0  0  0  0  0  0  0  0  0
    2.6504    4.5398   27.5562 H   0  0  0  0  0  0  0  0  0  0  0  0
    1.2245    5.3853   26.9976 H   0  0  0  0  0  0  0  0  0  0  0  0
   -0.0118    3.3538   27.1480 H   0  0  0  0  0  0  0  0  0  0  0  0
    0.7458    1.3425   27.6600 H   0  0  0  0  0  0  0  0  0  0  0  0
    1.9757    1.9997   28.7225 H   0  0  0  0  0  0  0  0  0  0  0  0
    3.5592    2.2629   26.9894 H   0  0  0  0  0  0  0  0  0  0  0  0
    2.7275    0.7754   26.5644 H   0  0  0  0  0  0  0  0  0  0  0  0
    4.1879    0.5596   24.8861 H   0  0  0  0  0  0  0  0  0  0  0  0
    9.2907    2.7399   16.7380 H   0  0  0  0  0  0  0  0  0  0  0  0
   11.5405    2.5139   15.1717 H   0  0  0  0  0  0  0  0  0  0  0  0
   12.0777   -0.1796   15.1966 H   0  0  0  0  0  0  0  0  0  0  0  0
  1  2  1  0
  2  3  1  0
  3  4  1  0
  4  5  2  0
  4  6  1  0
  6  7  1  0
  7  8  1  0
  8  9  2  0
  9 10  1  0
 10 11  1  0
 11 12  1  0
 12 13  1  0
 13 14  1  0
 14 15  1  0
 15 16  1  0
 10 17  1  0
  2 18  1  0
 18 19  1  0
 19 20  2  0
 20 21  1  0
 21 22  2  0
 17  7  2  0
 22 18  1  0
 16 11  1  0
  1 23  1  0
  1 24  1  0
  1 25  1  0
  2 26  1  0
  3 27  1  0
  3 28  1  0
  6 29  1  0
  8 30  1  0
 11 31  1  0
 12 32  1  0
 12 33  1  0
 13 34  1  0
 13 35  1  0
 14 36  1  0
 15 37  1  0
 15 38  1  0
 16 39  1  0
 16 40  1  0
 17 41  1  0
 19 42  1  0
 20 43  1  0
 21 44  1  0
M  END
>  <Energy>  (1025) 
360.34824111766278

>  <compound_id>  (1025) 
8575

>  <target_id>  (1025) 
1

>  <reference_id>  (1025) 
81

>  <inspiration_ids>  (1025) 
[81, 44]

>  <energy_score>  (1025) 
342.0807546737351

>  <distance_score>  (1025) 
4.064251227155347

>  <path>  (1025) 
/opt/xchem-fragalysis-2/maxwin/BulkDock/SCRATCH/511016/C8575-P81/C8575-P81.minimised.mol

>  <scratch_subdir>  (1025) 
/opt/xchem-fragalysis-2/maxwin/BulkDock/SCRATCH/511016/C8575-P81

>  <fragmenstein_runtime>  (1025) 
9.563811302185059

>  <fragmenstein_outcome>  (1025) 
too moved

>  <fragmenstein_mode>  (1025) 
expansion

>  <fragmenstein_error>  (1025) 


$$$$
C8575-P44
     RDKit          3D

 44 46  0  0  0  0  0  0  0  0999 V2000
    8.5806    1.0842   17.2483 C   0  0  0  0  0  0  0  0  0  0  0  0
    8.2231    2.4697   17.7836 C   0  0  0  0  0  0  0  0  0  0  0  0
    8.0140    2.5655   19.3465 C   0  0  0  0  0  0  0  0  0  0  0  0
    7.1816    1.3671   20.1061 C   0  0  0  0  0  0  0  0  0  0  0  0
    7.3364    0.1984   19.7175 O   0  0  0  0  0  0  0  0  0  0  0  0
    6.0023    2.0799   21.4102 N   0  0  0  0  0  0  0  0  0  0  0  0
    4.7385    1.2556   22.5648 C   0  0  0  0  0  0  0  0  0  0  0  0
    3.6483    2.3750   23.1328 C   0  0  0  0  0  0  0  0  0  0  0  0
    3.2549    2.3315   24.3966 N   0  0  0  0  0  0  0  0  0  0  0  0
    4.0018    1.3693   24.9161 N   0  0  0  0  0  0  0  0  0  0  0  0
    4.0579    1.2396   26.3796 C   0  0  0  0  0  0  0  0  0  0  0  0
    4.3070    2.5811   27.0948 C   0  0  0  0  0  0  0  0  0  0  0  0
    3.0302    3.3628   27.4048 C   0  0  0  0  0  0  0  0  0  0  0  0
    2.0748    2.5399   28.1483 N   0  0  0  0  0  0  0  0  0  0  0  0
    1.6705    1.4038   27.3256 C   0  0  0  0  0  0  0  0  0  0  0  0
    2.8668    0.5072   27.0130 C   0  0  0  0  0  0  0  0  0  0  0  0
    4.8151    0.7050   23.9889 C   0  0  0  0  0  0  0  0  0  0  0  0
    9.1814    3.4277   17.1869 N   0  0  0  0  0  0  0  0  0  0  0  0
    9.5067    4.6777   17.6297 C   0  0  0  0  0  0  0  0  0  0  0  0
   10.3825    5.1997   16.7049 C   0  0  0  0  0  0  0  0  0  0  0  0
   10.4837    4.2219   15.7055 C   0  0  0  0  0  0  0  0  0  0  0  0
    9.7186    3.1636   15.9601 N   0  0  0  0  0  0  0  0  0  0  0  0
    7.9328    0.3045   17.6178 H   0  0  0  0  0  0  0  0  0  0  0  0
    9.6089    0.8313   17.4880 H   0  0  0  0  0  0  0  0  0  0  0  0
    8.4845    1.0359   16.1564 H   0  0  0  0  0  0  0  0  0  0  0  0
    7.3000    2.8331   17.3277 H   0  0  0  0  0  0  0  0  0  0  0  0
    7.4877    3.5076   19.4932 H   0  0  0  0  0  0  0  0  0  0  0  0
    9.0071    2.6351   19.7981 H   0  0  0  0  0  0  0  0  0  0  0  0
    6.0628    3.1020   21.4360 H   0  0  0  0  0  0  0  0  0  0  0  0
    3.2479    3.2056   22.5621 H   0  0  0  0  0  0  0  0  0  0  0  0
    4.9481    0.6182   26.5511 H   0  0  0  0  0  0  0  0  0  0  0  0
    4.8128    2.3686   28.0470 H   0  0  0  0  0  0  0  0  0  0  0  0
    4.9955    3.2104   26.5175 H   0  0  0  0  0  0  0  0  0  0  0  0
    3.2934    4.2293   28.0221 H   0  0  0  0  0  0  0  0  0  0  0  0
    2.5705    3.7624   26.4943 H   0  0  0  0  0  0  0  0  0  0  0  0
    1.2497    3.1088   28.3479 H   0  0  0  0  0  0  0  0  0  0  0  0
    1.1819    1.7680   26.4182 H   0  0  0  0  0  0  0  0  0  0  0  0
    0.9232    0.8189   27.8732 H   0  0  0  0  0  0  0  0  0  0  0  0
    3.2092    0.0661   27.9599 H   0  0  0  0  0  0  0  0  0  0  0  0
    2.5596   -0.3322   26.3904 H   0  0  0  0  0  0  0  0  0  0  0  0
    5.3997   -0.0795   24.4120 H   0  0  0  0  0  0  0  0  0  0  0  0
    9.1239    5.0795   18.5551 H   0  0  0  0  0  0  0  0  0  0  0  0
   10.8717    6.1613   16.7488 H   0  0  0  0  0  0  0  0  0  0  0  0
   11.0669    4.2443   14.7954 H   0  0  0  0  0  0  0  0  0  0  0  0
  1  2  1  0
  2  3  1  0
  3  4  1  0
  4  5  2  0
  4  6  1  0
  6  7  1  0
  7  8  1  0
  8  9  2  0
  9 10  1  0
 10 11  1  0
 11 12  1  0
 12 13  1  0
 13 14  1  0
 14 15  1  0
 15 16  1  0
 10 17  1  0
  2 18  1  0
 18 19  1  0
 19 20  2  0
 20 21  1  0
 21 22  2  0
 17  7  2  0
 22 18  1  0
 16 11  1  0
  1 23  1  0
  1 24  1  0
  1 25  1  0
  2 26  1  0
  3 27  1  0
  3 28  1  0
  6 29  1  0
  8 30  1  0
 11 31  1  0
 12 32  1  0
 12 33  1  0
 13 34  1  0
 13 35  1  0
 14 36  1  0
 15 37  1  0
 15 38  1  0
 16 39  1  0
 16 40  1  0
 17 41  1  0
 19 42  1  0
 20 43  1  0
 21 44  1  0
M  END
>  <Energy>  (1026) 
217.67250824510219

>  <compound_id>  (1026) 
8575

>  <target_id>  (1026) 
1

>  <reference_id>  (1026) 
44

>  <inspiration_ids>  (1026) 
[81, 44]

>  <energy_score>  (1026) 
199.4050218011804

>  <distance_score>  (1026) 
6.088121764529678

>  <path>  (1026) 
/opt/xchem-fragalysis-2/maxwin/BulkDock/SCRATCH/511016/C8575-P44/C8575-P44.minimised.mol

>  <scratch_subdir>  (1026) 
/opt/xchem-fragalysis-2/maxwin/BulkDock/SCRATCH/511016/C8575-P44

>  <fragmenstein_runtime>  (1026) 
7.95263409614563

>  <fragmenstein_outcome>  (1026) 
too moved

>  <fragmenstein_mode>  (1026) 
expansion

>  <fragmenstein_error>  (1026) 


$$$$
C8578-P81
     RDKit          3D

 46 48  0  0  0  0  0  0  0  0999 V2000
    7.5948    0.9371   20.4969 C   0  0  0  0  0  0  0  0  0  0  0  0
    6.8487   -0.1286   19.8993 C   0  0  0  0  0  0  0  0  0  0  0  0
    5.4366    0.0116   21.4996 C   0  0  0  0  0  0  0  0  0  0  0  0
    4.0603    1.1696   22.4177 C   0  0  0  0  0  0  0  0  0  0  0  0
    4.2238    1.1384   23.5903 O   0  0  0  0  0  0  0  0  0  0  0  0
    2.9984    1.9486   21.6815 N   0  0  0  0  0  0  0  0  0  0  0  0
    2.0529    2.8567   22.1330 C   0  0  0  0  0  0  0  0  0  0  0  0
    2.1094    3.3464   23.4677 C   0  0  0  0  0  0  0  0  0  0  0  0
    1.0721    4.1025   23.7948 N   0  0  0  0  0  0  0  0  0  0  0  0
    0.3239    4.1091   22.6831 N   0  0  0  0  0  0  0  0  0  0  0  0
   -1.0480    4.6141   22.7843 C   0  0  0  0  0  0  0  0  0  0  0  0
   -1.9931    3.5254   23.3166 C   0  0  0  0  0  0  0  0  0  0  0  0
   -1.9349    3.3707   24.8372 C   0  0  0  0  0  0  0  0  0  0  0  0
   -2.2187    4.6360   25.4896 N   0  0  0  0  0  0  0  0  0  0  0  0
   -1.2254    5.6482   25.1394 C   0  0  0  0  0  0  0  0  0  0  0  0
   -1.1800    5.8971   23.6276 C   0  0  0  0  0  0  0  0  0  0  0  0
    0.9357    3.4688   21.6127 C   0  0  0  0  0  0  0  0  0  0  0  0
    7.7753    0.0901   18.1149 C   0  0  0  0  0  0  0  0  0  0  0  0
    7.8648   -0.4820   16.7796 C   0  0  0  0  0  0  0  0  0  0  0  0
    8.8603   -0.2792   15.7745 C   0  0  0  0  0  0  0  0  0  0  0  0
    9.5844    0.8682   15.8231 C   0  0  0  0  0  0  0  0  0  0  0  0
    9.1887    1.8314   16.6399 N   0  0  0  0  0  0  0  0  0  0  0  0
    8.2477    1.4794   17.5908 C   0  0  0  0  0  0  0  0  0  0  0  0
    8.1471    0.0501   20.7521 H   0  0  0  0  0  0  0  0  0  0  0  0
    7.4237    1.6293   21.3474 H   0  0  0  0  0  0  0  0  0  0  0  0
    7.5420    1.5846   19.6824 H   0  0  0  0  0  0  0  0  0  0  0  0
    6.1018    0.1090   19.2461 H   0  0  0  0  0  0  0  0  0  0  0  0
    5.9279   -0.6603   22.1443 H   0  0  0  0  0  0  0  0  0  0  0  0
    4.8762   -0.8799   21.8183 H   0  0  0  0  0  0  0  0  0  0  0  0
    3.0507    1.7223   20.7265 H   0  0  0  0  0  0  0  0  0  0  0  0
    2.8532    3.1362   24.2237 H   0  0  0  0  0  0  0  0  0  0  0  0
   -1.3279    4.8550   21.7505 H   0  0  0  0  0  0  0  0  0  0  0  0
   -1.7665    2.5673   22.8389 H   0  0  0  0  0  0  0  0  0  0  0  0
   -3.0211    3.7844   23.0292 H   0  0  0  0  0  0  0  0  0  0  0  0
   -0.9699    2.9669   25.1620 H   0  0  0  0  0  0  0  0  0  0  0  0
   -2.6942    2.6476   25.1515 H   0  0  0  0  0  0  0  0  0  0  0  0
   -2.2328    4.5210   26.5033 H   0  0  0  0  0  0  0  0  0  0  0  0
   -0.2432    5.3718   25.5356 H   0  0  0  0  0  0  0  0  0  0  0  0
   -1.4981    6.5866   25.6361 H   0  0  0  0  0  0  0  0  0  0  0  0
   -0.3705    6.5993   23.3940 H   0  0  0  0  0  0  0  0  0  0  0  0
   -2.1159    6.3950   23.3391 H   0  0  0  0  0  0  0  0  0  0  0  0
    0.4617    3.4231   20.6441 H   0  0  0  0  0  0  0  0  0  0  0  0
    7.0605   -1.0972   16.3728 H   0  0  0  0  0  0  0  0  0  0  0  0
    8.9428   -0.9460   14.9212 H   0  0  0  0  0  0  0  0  0  0  0  0
   10.3636    1.1101   15.1118 H   0  0  0  0  0  0  0  0  0  0  0  0
    7.8255    2.3932   18.0074 H   0  0  0  0  0  0  0  0  0  0  0  0
  1  2  1  0
  2  3  1  0
  3  4  1  0
  4  5  2  0
  4  6  1  0
  6  7  1  0
  7  8  1  0
  8  9  2  0
  9 10  1  0
 10 11  1  0
 11 12  1  0
 12 13  1  0
 13 14  1  0
 14 15  1  0
 15 16  1  0
 10 17  1  0
  2 18  1  0
 18 19  2  0
 19 20  1  0
 20 21  2  0
 21 22  1  0
 22 23  2  0
 17  7  2  0
 23 18  1  0
 16 11  1  0
  1 24  1  0
  1 25  1  0
  1 26  1  0
  2 27  1  0
  3 28  1  0
  3 29  1  0
  6 30  1  0
  8 31  1  0
 11 32  1  0
 12 33  1  0
 12 34  1  0
 13 35  1  0
 13 36  1  0
 14 37  1  0
 15 38  1  0
 15 39  1  0
 16 40  1  0
 16 41  1  0
 17 42  1  0
 19 43  1  0
 20 44  1  0
 21 45  1  0
 23 46  1  0
M  END
>  <Energy>  (1027) 
503.35363214406942

>  <compound_id>  (1027) 
8578

>  <target_id>  (1027) 
1

>  <reference_id>  (1027) 
81

>  <inspiration_ids>  (1027) 
[81, 44]

>  <energy_score>  (1027) 
439.8617156623475

>  <distance_score>  (1027) 
4.525747339156181

>  <path>  (1027) 
/opt/xchem-fragalysis-2/maxwin/BulkDock/SCRATCH/511016/C8578-P81/C8578-P81.minimised.mol

>  <scratch_subdir>  (1027) 
/opt/xchem-fragalysis-2/maxwin/BulkDock/SCRATCH/511016/C8578-P81

>  <fragmenstein_runtime>  (1027) 
6.9153289794921875

>  <fragmenstein_outcome>  (1027) 
too moved

>  <fragmenstein_mode>  (1027) 
expansion

>  <fragmenstein_error>  (1027) 


$$$$
C8578-P44
     RDKit          3D

 46 48  0  0  0  0  0  0  0  0999 V2000
    8.8597    5.1266   19.0048 C   0  0  0  0  0  0  0  0  0  0  0  0
    7.7383    4.2077   18.4754 C   0  0  0  0  0  0  0  0  0  0  0  0
    6.3612    5.1302   18.3576 C   0  0  0  0  0  0  0  0  0  0  0  0
    5.5541    5.5648   19.8120 C   0  0  0  0  0  0  0  0  0  0  0  0
    6.1806    5.9749   20.7262 O   0  0  0  0  0  0  0  0  0  0  0  0
    3.9969    5.2208   19.6973 N   0  0  0  0  0  0  0  0  0  0  0  0
    2.9592    5.2272   20.7031 C   0  0  0  0  0  0  0  0  0  0  0  0
    1.6069    4.9155   20.3729 C   0  0  0  0  0  0  0  0  0  0  0  0
    0.7674    4.8004   21.4061 N   0  0  0  0  0  0  0  0  0  0  0  0
    1.5419    4.9490   22.5109 N   0  0  0  0  0  0  0  0  0  0  0  0
    0.8336    4.9038   23.8388 C   0  0  0  0  0  0  0  0  0  0  0  0
   -0.4058    3.9477   23.8790 C   0  0  0  0  0  0  0  0  0  0  0  0
   -0.9089    3.6647   25.2992 C   0  0  0  0  0  0  0  0  0  0  0  0
    0.0801    2.9900   26.1340 N   0  0  0  0  0  0  0  0  0  0  0  0
    1.4584    3.3691   25.8347 C   0  0  0  0  0  0  0  0  0  0  0  0
    1.6634    4.7176   25.1308 C   0  0  0  0  0  0  0  0  0  0  0  0
    2.8659    5.3034   22.1044 C   0  0  0  0  0  0  0  0  0  0  0  0
    8.4129    3.3010   17.3285 C   0  0  0  0  0  0  0  0  0  0  0  0
    8.5486    1.8901   17.4428 C   0  0  0  0  0  0  0  0  0  0  0  0
    9.2334    1.0941   16.4951 C   0  0  0  0  0  0  0  0  0  0  0  0
    9.8839    1.7327   15.4722 C   0  0  0  0  0  0  0  0  0  0  0  0
    9.8438    3.0743   15.3350 N   0  0  0  0  0  0  0  0  0  0  0  0
    9.0982    3.8157   16.2339 C   0  0  0  0  0  0  0  0  0  0  0  0
    9.1682    5.8548   18.2469 H   0  0  0  0  0  0  0  0  0  0  0  0
    9.7430    4.5450   19.2919 H   0  0  0  0  0  0  0  0  0  0  0  0
    8.5458    5.6962   19.8823 H   0  0  0  0  0  0  0  0  0  0  0  0
    7.5170    3.4858   19.2656 H   0  0  0  0  0  0  0  0  0  0  0  0
    6.6245    6.0817   17.8785 H   0  0  0  0  0  0  0  0  0  0  0  0
    5.6549    4.6353   17.6838 H   0  0  0  0  0  0  0  0  0  0  0  0
    3.7747    4.9676   18.7451 H   0  0  0  0  0  0  0  0  0  0  0  0
    1.2040    4.7440   19.3837 H   0  0  0  0  0  0  0  0  0  0  0  0
    0.4373    5.9301   23.8885 H   0  0  0  0  0  0  0  0  0  0  0  0
   -0.1639    3.0035   23.3869 H   0  0  0  0  0  0  0  0  0  0  0  0
   -1.2210    4.3934   23.2949 H   0  0  0  0  0  0  0  0  0  0  0  0
   -1.8105    3.0444   25.2523 H   0  0  0  0  0  0  0  0  0  0  0  0
   -1.1980    4.6124   25.7703 H   0  0  0  0  0  0  0  0  0  0  0  0
   -0.1362    3.1770   27.1148 H   0  0  0  0  0  0  0  0  0  0  0  0
    1.9021    2.5958   25.2004 H   0  0  0  0  0  0  0  0  0  0  0  0
    2.0375    3.3572   26.7655 H   0  0  0  0  0  0  0  0  0  0  0  0
    2.7311    4.8619   24.9353 H   0  0  0  0  0  0  0  0  0  0  0  0
    1.3764    5.5081   25.8379 H   0  0  0  0  0  0  0  0  0  0  0  0
    3.6208    5.4841   22.8537 H   0  0  0  0  0  0  0  0  0  0  0  0
    8.0691    1.3933   18.2857 H   0  0  0  0  0  0  0  0  0  0  0  0
    9.2348    0.0179   16.5530 H   0  0  0  0  0  0  0  0  0  0  0  0
   10.4333    1.1947   14.7071 H   0  0  0  0  0  0  0  0  0  0  0  0
    9.1208    4.8843   16.0391 H   0  0  0  0  0  0  0  0  0  0  0  0
  1  2  1  0
  2  3  1  0
  3  4  1  0
  4  5  2  0
  4  6  1  0
  6  7  1  0
  7  8  1  0
  8  9  2  0
  9 10  1  0
 10 11  1  0
 11 12  1  0
 12 13  1  0
 13 14  1  0
 14 15  1  0
 15 16  1  0
 10 17  1  0
  2 18  1  0
 18 19  2  0
 19 20  1  0
 20 21  2  0
 21 22  1  0
 22 23  2  0
 17  7  2  0
 23 18  1  0
 16 11  1  0
  1 24  1  0
  1 25  1  0
  1 26  1  0
  2 27  1  0
  3 28  1  0
  3 29  1  0
  6 30  1  0
  8 31  1  0
 11 32  1  0
 12 33  1  0
 12 34  1  0
 13 35  1  0
 13 36  1  0
 14 37  1  0
 15 38  1  0
 15 39  1  0
 16 40  1  0
 16 41  1  0
 17 42  1  0
 19 43  1  0
 20 44  1  0
 21 45  1  0
 23 46  1  0
M  END
>  <Energy>  (1028) 
78.152117978515562

>  <compound_id>  (1028) 
8578

>  <target_id>  (1028) 
1

>  <reference_id>  (1028) 
44

>  <inspiration_ids>  (1028) 
[81, 44]

>  <energy_score>  (1028) 
19.06728229842963

>  <distance_score>  (1028) 
4.57167194142643

>  <path>  (1028) 
/opt/xchem-fragalysis-2/maxwin/BulkDock/SCRATCH/511016/C8578-P44/C8578-P44.minimised.mol

>  <scratch_subdir>  (1028) 
/opt/xchem-fragalysis-2/maxwin/BulkDock/SCRATCH/511016/C8578-P44

>  <fragmenstein_runtime>  (1028) 
6.110944747924805

>  <fragmenstein_outcome>  (1028) 
too moved

>  <fragmenstein_mode>  (1028) 
expansion

>  <fragmenstein_error>  (1028) 


$$$$
C8579-P81
     RDKit          3D

 43 45  0  0  0  0  0  0  0  0999 V2000
    2.7667    2.5271   21.7448 C   0  0  0  0  0  0  0  0  0  0  0  0
    3.9051    1.3145   22.3727 C   0  0  0  0  0  0  0  0  0  0  0  0
    5.4266    0.1403   21.6502 C   0  0  0  0  0  0  0  0  0  0  0  0
    7.0417    0.3506   20.3147 C   0  0  0  0  0  0  0  0  0  0  0  0
    7.8097    1.1499   20.7574 O   0  0  0  0  0  0  0  0  0  0  0  0
    7.0797   -0.3436   18.9178 N   0  0  0  0  0  0  0  0  0  0  0  0
    8.1066   -0.1010   17.5625 C   0  0  0  0  0  0  0  0  0  0  0  0
    8.0521   -0.7624   16.2866 C   0  0  0  0  0  0  0  0  0  0  0  0
    9.1901   -0.4872   15.5780 N   0  0  0  0  0  0  0  0  0  0  0  0
    9.8608    0.4898   16.1608 N   0  0  0  0  0  0  0  0  0  0  0  0
    8.9166    1.0131   16.9823 C   0  0  0  0  0  0  0  0  0  0  0  0
    8.8134    2.6172   16.9311 C   0  0  0  0  0  0  0  0  0  0  0  0
    9.8321    3.3203   16.4556 N   0  0  0  0  0  0  0  0  0  0  0  0
    9.5314    4.6648   16.4314 C   0  0  0  0  0  0  0  0  0  0  0  0
    8.2478    4.9861   16.8021 C   0  0  0  0  0  0  0  0  0  0  0  0
    7.3994    3.5572   17.1962 S   0  0  0  0  0  0  0  0  0  0  0  0
    3.3049    1.6182   24.1423 C   0  0  0  0  0  0  0  0  0  0  0  0
    2.7951    3.0835   24.5515 C   0  0  0  0  0  0  0  0  0  0  0  0
    2.0932    3.1334   25.9161 C   0  0  0  0  0  0  0  0  0  0  0  0
    2.8703    2.5222   26.9812 N   0  0  0  0  0  0  0  0  0  0  0  0
    3.0264    1.0971   26.7231 C   0  0  0  0  0  0  0  0  0  0  0  0
    3.7872    0.7993   25.4177 C   0  0  0  0  0  0  0  0  0  0  0  0
    3.0708    3.5504   22.0117 H   0  0  0  0  0  0  0  0  0  0  0  0
    1.7695    2.4393   22.1495 H   0  0  0  0  0  0  0  0  0  0  0  0
    2.5817    2.4558   20.6713 H   0  0  0  0  0  0  0  0  0  0  0  0
    3.2340    0.7832   21.7474 H   0  0  0  0  0  0  0  0  0  0  0  0
    5.3977   -0.8459   22.1240 H   0  0  0  0  0  0  0  0  0  0  0  0
    5.8924    0.9847   22.1869 H   0  0  0  0  0  0  0  0  0  0  0  0
    6.3367   -1.0331   18.8720 H   0  0  0  0  0  0  0  0  0  0  0  0
    7.3870   -1.4988   15.8604 H   0  0  0  0  0  0  0  0  0  0  0  0
    9.5381   -0.9003   14.7096 H   0  0  0  0  0  0  0  0  0  0  0  0
   10.2903    5.3717   16.1196 H   0  0  0  0  0  0  0  0  0  0  0  0
    7.7788    5.9581   16.8438 H   0  0  0  0  0  0  0  0  0  0  0  0
    2.3111    1.2461   24.0881 H   0  0  0  0  0  0  0  0  0  0  0  0
    2.0324    3.4472   23.8595 H   0  0  0  0  0  0  0  0  0  0  0  0
    3.5778    3.8442   24.5227 H   0  0  0  0  0  0  0  0  0  0  0  0
    1.9030    4.1810   26.1768 H   0  0  0  0  0  0  0  0  0  0  0  0
    1.1068    2.6571   25.8485 H   0  0  0  0  0  0  0  0  0  0  0  0
    3.7891    2.9598   27.0304 H   0  0  0  0  0  0  0  0  0  0  0  0
    2.0492    0.6096   26.7521 H   0  0  0  0  0  0  0  0  0  0  0  0
    3.5858    0.6565   27.5576 H   0  0  0  0  0  0  0  0  0  0  0  0
    4.8188    0.9929   25.6831 H   0  0  0  0  0  0  0  0  0  0  0  0
    3.7334   -0.2803   25.2456 H   0  0  0  0  0  0  0  0  0  0  0  0
  1  2  1  0
  2  3  1  0
  3  4  1  0
  4  5  2  0
  4  6  1  0
  6  7  1  0
  7  8  2  0
  8  9  1  0
  9 10  1  0
 10 11  2  0
 11 12  1  0
 12 13  2  0
 13 14  1  0
 14 15  2  0
 15 16  1  0
  2 17  1  0
 17 18  1  0
 18 19  1  0
 19 20  1  0
 20 21  1  0
 21 22  1  0
 11  7  1  0
 16 12  1  0
 22 17  1  0
  1 23  1  0
  1 24  1  0
  1 25  1  0
  2 26  1  0
  3 27  1  0
  3 28  1  0
  6 29  1  0
  8 30  1  0
  9 31  1  0
 14 32  1  0
 15 33  1  0
 17 34  1  0
 18 35  1  0
 18 36  1  0
 19 37  1  0
 19 38  1  0
 20 39  1  0
 21 40  1  0
 21 41  1  0
 22 42  1  0
 22 43  1  0
M  END
>  <Energy>  (1029) 
455.38963174992347

>  <compound_id>  (1029) 
8579

>  <target_id>  (1029) 
1

>  <reference_id>  (1029) 
81

>  <inspiration_ids>  (1029) 
[81, 44]

>  <energy_score>  (1029) 
309.11521141593767

>  <distance_score>  (1029) 
5.456348613557536

>  <path>  (1029) 
/opt/xchem-fragalysis-2/maxwin/BulkDock/SCRATCH/511016/C8579-P81/C8579-P81.minimised.mol

>  <scratch_subdir>  (1029) 
/opt/xchem-fragalysis-2/maxwin/BulkDock/SCRATCH/511016/C8579-P81

>  <fragmenstein_runtime>  (1029) 
6.394414663314819

>  <fragmenstein_outcome>  (1029) 
too moved

>  <fragmenstein_mode>  (1029) 
expansion

>  <fragmenstein_error>  (1029) 


$$$$
C8579-P44
     RDKit          3D

 43 45  0  0  0  0  0  0  0  0999 V2000
    4.4558    3.4754   23.2545 C   0  0  0  0  0  0  0  0  0  0  0  0
    4.2523    1.8476   23.0321 C   0  0  0  0  0  0  0  0  0  0  0  0
    4.7690    0.8892   21.3081 C   0  0  0  0  0  0  0  0  0  0  0  0
    6.5907    0.5679   20.1262 C   0  0  0  0  0  0  0  0  0  0  0  0
    7.0098   -0.4721   19.7202 O   0  0  0  0  0  0  0  0  0  0  0  0
    7.3833    2.0846   19.8078 N   0  0  0  0  0  0  0  0  0  0  0  0
    8.4955    2.4042   19.0116 C   0  0  0  0  0  0  0  0  0  0  0  0
    9.1545    3.5801   19.3433 C   0  0  0  0  0  0  0  0  0  0  0  0
    9.5312    4.1838   18.1932 N   0  0  0  0  0  0  0  0  0  0  0  0
    9.2025    3.4866   17.1243 N   0  0  0  0  0  0  0  0  0  0  0  0
    8.8655    2.2662   17.6130 C   0  0  0  0  0  0  0  0  0  0  0  0
    9.1703    1.0965   16.5605 C   0  0  0  0  0  0  0  0  0  0  0  0
    9.2040   -0.2099   16.7493 N   0  0  0  0  0  0  0  0  0  0  0  0
    9.7867   -0.8153   15.6348 C   0  0  0  0  0  0  0  0  0  0  0  0
   10.2730    0.0150   14.6595 C   0  0  0  0  0  0  0  0  0  0  0  0
    9.8417    1.6047   15.0131 S   0  0  0  0  0  0  0  0  0  0  0  0
    4.3707    1.3449   24.6247 C   0  0  0  0  0  0  0  0  0  0  0  0
    3.3784    2.1469   25.5579 C   0  0  0  0  0  0  0  0  0  0  0  0
    2.9836    1.4266   26.8560 C   0  0  0  0  0  0  0  0  0  0  0  0
    4.1148    0.7126   27.4331 N   0  0  0  0  0  0  0  0  0  0  0  0
    4.6355   -0.3104   26.5168 C   0  0  0  0  0  0  0  0  0  0  0  0
    4.2667   -0.1092   25.0383 C   0  0  0  0  0  0  0  0  0  0  0  0
    5.2706    3.6785   23.9572 H   0  0  0  0  0  0  0  0  0  0  0  0
    3.5444    3.8864   23.7068 H   0  0  0  0  0  0  0  0  0  0  0  0
    4.5993    4.1105   22.3803 H   0  0  0  0  0  0  0  0  0  0  0  0
    3.1679    1.9620   22.8514 H   0  0  0  0  0  0  0  0  0  0  0  0
    3.7608    1.0303   21.0059 H   0  0  0  0  0  0  0  0  0  0  0  0
    4.6266   -0.1701   21.6932 H   0  0  0  0  0  0  0  0  0  0  0  0
    6.8984    2.8247   20.3250 H   0  0  0  0  0  0  0  0  0  0  0  0
    9.3136    4.1034   20.2683 H   0  0  0  0  0  0  0  0  0  0  0  0
   10.0084    5.0697   18.0671 H   0  0  0  0  0  0  0  0  0  0  0  0
    9.8984   -1.8860   15.5743 H   0  0  0  0  0  0  0  0  0  0  0  0
   10.8099   -0.2460   13.7604 H   0  0  0  0  0  0  0  0  0  0  0  0
    5.3611    1.6579   24.9825 H   0  0  0  0  0  0  0  0  0  0  0  0
    2.4615    2.4059   25.0186 H   0  0  0  0  0  0  0  0  0  0  0  0
    3.8584    3.0939   25.8375 H   0  0  0  0  0  0  0  0  0  0  0  0
    2.6155    2.1643   27.5781 H   0  0  0  0  0  0  0  0  0  0  0  0
    2.1542    0.7306   26.6950 H   0  0  0  0  0  0  0  0  0  0  0  0
    4.8590    1.3838   27.6253 H   0  0  0  0  0  0  0  0  0  0  0  0
    4.2690   -1.2910   26.8417 H   0  0  0  0  0  0  0  0  0  0  0  0
    5.7270   -0.3416   26.6175 H   0  0  0  0  0  0  0  0  0  0  0  0
    4.8577   -0.7732   24.4116 H   0  0  0  0  0  0  0  0  0  0  0  0
    3.2330   -0.3994   24.9346 H   0  0  0  0  0  0  0  0  0  0  0  0
  1  2  1  0
  2  3  1  0
  3  4  1  0
  4  5  2  0
  4  6  1  0
  6  7  1  0
  7  8  2  0
  8  9  1  0
  9 10  1  0
 10 11  2  0
 11 12  1  0
 12 13  2  0
 13 14  1  0
 14 15  2  0
 15 16  1  0
  2 17  1  0
 17 18  1  0
 18 19  1  0
 19 20  1  0
 20 21  1  0
 21 22  1  0
 11  7  1  0
 16 12  1  0
 22 17  1  0
  1 23  1  0
  1 24  1  0
  1 25  1  0
  2 26  1  0
  3 27  1  0
  3 28  1  0
  6 29  1  0
  8 30  1  0
  9 31  1  0
 14 32  1  0
 15 33  1  0
 17 34  1  0
 18 35  1  0
 18 36  1  0
 19 37  1  0
 19 38  1  0
 20 39  1  0
 21 40  1  0
 21 41  1  0
 22 42  1  0
 22 43  1  0
M  END
>  <Energy>  (1030) 
381.71847249436684

>  <compound_id>  (1030) 
8579

>  <target_id>  (1030) 
1

>  <reference_id>  (1030) 
44

>  <inspiration_ids>  (1030) 
[81, 44]

>  <energy_score>  (1030) 
235.44405216038797

>  <distance_score>  (1030) 
6.4690774077028665

>  <path>  (1030) 
/opt/xchem-fragalysis-2/maxwin/BulkDock/SCRATCH/511016/C8579-P44/C8579-P44.minimised.mol

>  <scratch_subdir>  (1030) 
/opt/xchem-fragalysis-2/maxwin/BulkDock/SCRATCH/511016/C8579-P44

>  <fragmenstein_runtime>  (1030) 
8.002880334854126

>  <fragmenstein_outcome>  (1030) 
too moved

>  <fragmenstein_mode>  (1030) 
expansion

>  <fragmenstein_error>  (1030) 


$$$$
C8581-P81
     RDKit          3D

 43 44  0  0  0  0  0  0  0  0999 V2000
    9.1374    3.6979   16.9388 C   0  0  0  0  0  0  0  0  0  0  0  0
    7.6578    3.3326   16.9881 C   0  0  0  0  0  0  0  0  0  0  0  0
    6.7683    4.4583   16.5767 C   0  0  0  0  0  0  0  0  0  0  0  0
    7.0297    5.0395   15.3602 N   0  0  0  0  0  0  0  0  0  0  0  0
    6.2063    6.0235   15.0206 N   0  0  0  0  0  0  0  0  0  0  0  0
    5.3384    6.0498   16.0318 C   0  0  0  0  0  0  0  0  0  0  0  0
    5.6360    5.1174   17.0597 C   0  0  0  0  0  0  0  0  0  0  0  0
    4.8964    4.9671   18.2275 N   0  0  0  0  0  0  0  0  0  0  0  0
    3.6830    5.6523   18.6905 C   0  0  0  0  0  0  0  0  0  0  0  0
    2.9815    6.4578   18.1417 O   0  0  0  0  0  0  0  0  0  0  0  0
    3.2731    5.1537   20.1158 C   0  0  0  0  0  0  0  0  0  0  0  0
    2.1631    5.9743   20.8502 C   0  0  0  0  0  0  0  0  0  0  0  0
    2.7313    7.3518   21.2361 C   0  0  0  0  0  0  0  0  0  0  0  0
    1.5028    5.3158   22.1146 C   0  0  0  0  0  0  0  0  0  0  0  0
    0.6186    4.0979   21.8183 C   0  0  0  0  0  0  0  0  0  0  0  0
   -0.1951    3.7193   23.0711 C   0  0  0  0  0  0  0  0  0  0  0  0
    0.5447    3.8156   24.3299 N   0  0  0  0  0  0  0  0  0  0  0  0
    1.9883    3.8072   24.1504 C   0  0  0  0  0  0  0  0  0  0  0  0
    2.4668    4.9769   23.2733 C   0  0  0  0  0  0  0  0  0  0  0  0
    9.7482    2.8442   17.2460 H   0  0  0  0  0  0  0  0  0  0  0  0
    9.3599    4.5440   17.5973 H   0  0  0  0  0  0  0  0  0  0  0  0
    9.4584    3.9687   15.9276 H   0  0  0  0  0  0  0  0  0  0  0  0
    7.3882    3.0177   17.9860 H   0  0  0  0  0  0  0  0  0  0  0  0
    7.4923    2.4839   16.3187 H   0  0  0  0  0  0  0  0  0  0  0  0
    7.7724    4.8133   14.7113 H   0  0  0  0  0  0  0  0  0  0  0  0
    4.5190    6.7578   15.9965 H   0  0  0  0  0  0  0  0  0  0  0  0
    5.1799    4.2917   18.9218 H   0  0  0  0  0  0  0  0  0  0  0  0
    2.9027    4.1343   19.9778 H   0  0  0  0  0  0  0  0  0  0  0  0
    4.1763    5.1525   20.7334 H   0  0  0  0  0  0  0  0  0  0  0  0
    1.3531    6.1545   20.1305 H   0  0  0  0  0  0  0  0  0  0  0  0
    1.9645    7.9695   21.7157 H   0  0  0  0  0  0  0  0  0  0  0  0
    3.5734    7.2572   21.9296 H   0  0  0  0  0  0  0  0  0  0  0  0
    3.0840    7.8992   20.3566 H   0  0  0  0  0  0  0  0  0  0  0  0
    0.8141    6.0810   22.5070 H   0  0  0  0  0  0  0  0  0  0  0  0
    1.2411    3.2514   21.5047 H   0  0  0  0  0  0  0  0  0  0  0  0
   -0.0709    4.3126   20.9938 H   0  0  0  0  0  0  0  0  0  0  0  0
   -1.0649    4.3821   23.1471 H   0  0  0  0  0  0  0  0  0  0  0  0
   -0.5938    2.7078   22.9447 H   0  0  0  0  0  0  0  0  0  0  0  0
    0.2419    3.1160   25.0007 H   0  0  0  0  0  0  0  0  0  0  0  0
    2.4774    3.8762   25.1284 H   0  0  0  0  0  0  0  0  0  0  0  0
    2.3097    2.8549   23.7128 H   0  0  0  0  0  0  0  0  0  0  0  0
    3.4634    4.7298   22.8934 H   0  0  0  0  0  0  0  0  0  0  0  0
    2.5875    5.8717   23.8974 H   0  0  0  0  0  0  0  0  0  0  0  0
  1  2  1  0
  2  3  1  0
  3  4  1  0
  4  5  1  0
  5  6  2  0
  6  7  1  0
  7  8  1  0
  8  9  1  0
  9 10  2  0
  9 11  1  0
 11 12  1  0
 12 13  1  0
 12 14  1  0
 14 15  1  0
 15 16  1  0
 16 17  1  0
 17 18  1  0
 18 19  1  0
  7  3  2  0
 19 14  1  0
  1 20  1  0
  1 21  1  0
  1 22  1  0
  2 23  1  0
  2 24  1  0
  4 25  1  0
  6 26  1  0
  8 27  1  0
 11 28  1  0
 11 29  1  0
 12 30  1  0
 13 31  1  0
 13 32  1  0
 13 33  1  0
 14 34  1  0
 15 35  1  0
 15 36  1  0
 16 37  1  0
 16 38  1  0
 17 39  1  0
 18 40  1  0
 18 41  1  0
 19 42  1  0
 19 43  1  0
M  END
>  <Energy>  (1031) 
21.545923034618752

>  <compound_id>  (1031) 
8581

>  <target_id>  (1031) 
1

>  <reference_id>  (1031) 
81

>  <inspiration_ids>  (1031) 
[81, 44]

>  <energy_score>  (1031) 
-49.23088333267651

>  <distance_score>  (1031) 
7.400401022889961

>  <path>  (1031) 
/opt/xchem-fragalysis-2/maxwin/BulkDock/SCRATCH/511016/C8581-P81/C8581-P81.minimised.mol

>  <scratch_subdir>  (1031) 
/opt/xchem-fragalysis-2/maxwin/BulkDock/SCRATCH/511016/C8581-P81

>  <fragmenstein_runtime>  (1031) 
8.09030294418335

>  <fragmenstein_outcome>  (1031) 
too moved

>  <fragmenstein_mode>  (1031) 
expansion

>  <fragmenstein_error>  (1031) 


$$$$
C8581-P44
     RDKit          3D

 43 44  0  0  0  0  0  0  0  0999 V2000
    8.3288    0.2590   16.5714 C   0  0  0  0  0  0  0  0  0  0  0  0
    8.5114    1.4198   17.5088 C   0  0  0  0  0  0  0  0  0  0  0  0
    8.2779    1.4682   19.1265 C   0  0  0  0  0  0  0  0  0  0  0  0
    9.2599    2.5472   19.4408 N   0  0  0  0  0  0  0  0  0  0  0  0
    8.7297    3.7251   19.0837 N   0  0  0  0  0  0  0  0  0  0  0  0
    7.4646    3.4533   19.3457 C   0  0  0  0  0  0  0  0  0  0  0  0
    7.2952    2.0851   20.0141 C   0  0  0  0  0  0  0  0  0  0  0  0
    6.0351    2.2283   21.3750 N   0  0  0  0  0  0  0  0  0  0  0  0
    4.7395    1.0681   21.9967 C   0  0  0  0  0  0  0  0  0  0  0  0
    4.5462   -0.0753   21.6432 O   0  0  0  0  0  0  0  0  0  0  0  0
    3.9451    2.0388   23.3276 C   0  0  0  0  0  0  0  0  0  0  0  0
    4.1626    3.4692   23.9358 C   0  0  0  0  0  0  0  0  0  0  0  0
    3.5965    4.5780   23.0371 C   0  0  0  0  0  0  0  0  0  0  0  0
    3.5724    3.5719   25.4229 C   0  0  0  0  0  0  0  0  0  0  0  0
    2.2791    2.7745   25.6597 C   0  0  0  0  0  0  0  0  0  0  0  0
    1.6784    2.9335   27.0567 C   0  0  0  0  0  0  0  0  0  0  0  0
    1.5015    4.3334   27.4052 N   0  0  0  0  0  0  0  0  0  0  0  0
    2.7782    5.0395   27.3596 C   0  0  0  0  0  0  0  0  0  0  0  0
    3.3641    5.0084   25.9453 C   0  0  0  0  0  0  0  0  0  0  0  0
    8.4487    0.6313   15.5456 H   0  0  0  0  0  0  0  0  0  0  0  0
    7.3433   -0.1942   16.5993 H   0  0  0  0  0  0  0  0  0  0  0  0
    9.1061   -0.4956   16.6615 H   0  0  0  0  0  0  0  0  0  0  0  0
    9.5642    1.6937   17.3419 H   0  0  0  0  0  0  0  0  0  0  0  0
    7.9561    2.2649   17.0789 H   0  0  0  0  0  0  0  0  0  0  0  0
   10.2565    2.5445   19.2526 H   0  0  0  0  0  0  0  0  0  0  0  0
    6.7915    4.3024   19.3534 H   0  0  0  0  0  0  0  0  0  0  0  0
    5.9076    3.1553   21.7925 H   0  0  0  0  0  0  0  0  0  0  0  0
    2.8960    2.0825   23.0318 H   0  0  0  0  0  0  0  0  0  0  0  0
    4.1019    1.3584   24.1782 H   0  0  0  0  0  0  0  0  0  0  0  0
    5.2359    3.6572   24.0330 H   0  0  0  0  0  0  0  0  0  0  0  0
    4.0846    4.6122   22.0642 H   0  0  0  0  0  0  0  0  0  0  0  0
    2.5194    4.4584   22.8840 H   0  0  0  0  0  0  0  0  0  0  0  0
    3.7779    5.5703   23.4602 H   0  0  0  0  0  0  0  0  0  0  0  0
    4.3352    3.1093   26.0677 H   0  0  0  0  0  0  0  0  0  0  0  0
    2.5309    1.7194   25.5663 H   0  0  0  0  0  0  0  0  0  0  0  0
    1.5314    3.0369   24.9022 H   0  0  0  0  0  0  0  0  0  0  0  0
    0.7075    2.4268   27.0884 H   0  0  0  0  0  0  0  0  0  0  0  0
    2.3175    2.4384   27.7985 H   0  0  0  0  0  0  0  0  0  0  0  0
    1.0939    4.4131   28.3368 H   0  0  0  0  0  0  0  0  0  0  0  0
    2.6159    6.0824   27.6537 H   0  0  0  0  0  0  0  0  0  0  0  0
    3.4855    4.6098   28.0792 H   0  0  0  0  0  0  0  0  0  0  0  0
    4.3185    5.5476   25.9341 H   0  0  0  0  0  0  0  0  0  0  0  0
    2.6711    5.5548   25.2945 H   0  0  0  0  0  0  0  0  0  0  0  0
  1  2  1  0
  2  3  1  0
  3  4  1  0
  4  5  1  0
  5  6  2  0
  6  7  1  0
  7  8  1  0
  8  9  1  0
  9 10  2  0
  9 11  1  0
 11 12  1  0
 12 13  1  0
 12 14  1  0
 14 15  1  0
 15 16  1  0
 16 17  1  0
 17 18  1  0
 18 19  1  0
  7  3  2  0
 19 14  1  0
  1 20  1  0
  1 21  1  0
  1 22  1  0
  2 23  1  0
  2 24  1  0
  4 25  1  0
  6 26  1  0
  8 27  1  0
 11 28  1  0
 11 29  1  0
 12 30  1  0
 13 31  1  0
 13 32  1  0
 13 33  1  0
 14 34  1  0
 15 35  1  0
 15 36  1  0
 16 37  1  0
 16 38  1  0
 17 39  1  0
 18 40  1  0
 18 41  1  0
 19 42  1  0
 19 43  1  0
M  END
>  <Energy>  (1032) 
297.30793944988818

>  <compound_id>  (1032) 
8581

>  <target_id>  (1032) 
1

>  <reference_id>  (1032) 
44

>  <inspiration_ids>  (1032) 
[81, 44]

>  <energy_score>  (1032) 
226.53113308259788

>  <distance_score>  (1032) 
6.097976215178911

>  <path>  (1032) 
/opt/xchem-fragalysis-2/maxwin/BulkDock/SCRATCH/511016/C8581-P44/C8581-P44.minimised.mol

>  <scratch_subdir>  (1032) 
/opt/xchem-fragalysis-2/maxwin/BulkDock/SCRATCH/511016/C8581-P44

>  <fragmenstein_runtime>  (1032) 
7.875243186950684

>  <fragmenstein_outcome>  (1032) 
too moved

>  <fragmenstein_mode>  (1032) 
expansion

>  <fragmenstein_error>  (1032) 


$$$$
C8583-P81
     RDKit          3D

 43 44  0  0  0  0  0  0  0  0999 V2000
   10.9192   -1.2047   15.2075 C   0  0  0  0  0  0  0  0  0  0  0  0
    9.4520   -0.8230   15.0907 C   0  0  0  0  0  0  0  0  0  0  0  0
    8.9416   -0.2212   16.3010 N   0  0  0  0  0  0  0  0  0  0  0  0
    7.7551   -0.4400   16.9709 C   0  0  0  0  0  0  0  0  0  0  0  0
    7.7826   -0.3531   18.5862 C   0  0  0  0  0  0  0  0  0  0  0  0
    6.9579    0.4255   19.7714 N   0  0  0  0  0  0  0  0  0  0  0  0
    5.8901   -0.2082   21.2727 C   0  0  0  0  0  0  0  0  0  0  0  0
    5.6996   -1.3544   21.6974 O   0  0  0  0  0  0  0  0  0  0  0  0
    4.7145    1.0794   22.2666 C   0  0  0  0  0  0  0  0  0  0  0  0
    3.1667    2.2699   22.5353 C   0  0  0  0  0  0  0  0  0  0  0  0
    2.3017    2.7227   21.3358 C   0  0  0  0  0  0  0  0  0  0  0  0
    3.0469    3.5018   23.6413 C   0  0  0  0  0  0  0  0  0  0  0  0
    1.9802    4.6253   23.4225 C   0  0  0  0  0  0  0  0  0  0  0  0
    0.5772    4.3260   23.9444 C   0  0  0  0  0  0  0  0  0  0  0  0
    0.6262    4.0800   25.3795 N   0  0  0  0  0  0  0  0  0  0  0  0
    1.4269    2.9013   25.6460 C   0  0  0  0  0  0  0  0  0  0  0  0
    2.8591    3.0150   25.1219 C   0  0  0  0  0  0  0  0  0  0  0  0
    8.3173    1.1273   17.5693 C   0  0  0  0  0  0  0  0  0  0  0  0
    9.2579    1.0030   16.6248 N   0  0  0  0  0  0  0  0  0  0  0  0
   11.5366   -0.3388   15.4688 H   0  0  0  0  0  0  0  0  0  0  0  0
   11.0706   -1.9663   15.9776 H   0  0  0  0  0  0  0  0  0  0  0  0
   11.2901   -1.6105   14.2619 H   0  0  0  0  0  0  0  0  0  0  0  0
    9.3081   -0.0980   14.2840 H   0  0  0  0  0  0  0  0  0  0  0  0
    8.8413   -1.7093   14.8936 H   0  0  0  0  0  0  0  0  0  0  0  0
    6.9805   -0.9004   16.3834 H   0  0  0  0  0  0  0  0  0  0  0  0
    6.9879    1.4141   19.7273 H   0  0  0  0  0  0  0  0  0  0  0  0
    3.9662    0.6047   21.6878 H   0  0  0  0  0  0  0  0  0  0  0  0
    4.4178    0.9240   23.2920 H   0  0  0  0  0  0  0  0  0  0  0  0
    2.5798    1.6049   23.1195 H   0  0  0  0  0  0  0  0  0  0  0  0
    1.2542    2.8468   21.6214 H   0  0  0  0  0  0  0  0  0  0  0  0
    2.3009    2.0288   20.5264 H   0  0  0  0  0  0  0  0  0  0  0  0
    2.6196    3.6821   20.9136 H   0  0  0  0  0  0  0  0  0  0  0  0
    3.9717    4.0735   23.5386 H   0  0  0  0  0  0  0  0  0  0  0  0
    2.3417    5.5130   23.9655 H   0  0  0  0  0  0  0  0  0  0  0  0
    1.9319    4.9624   22.3844 H   0  0  0  0  0  0  0  0  0  0  0  0
    0.1182    3.4820   23.4190 H   0  0  0  0  0  0  0  0  0  0  0  0
   -0.0603    5.1985   23.7624 H   0  0  0  0  0  0  0  0  0  0  0  0
   -0.3178    3.9666   25.7470 H   0  0  0  0  0  0  0  0  0  0  0  0
    0.9342    2.0430   25.2018 H   0  0  0  0  0  0  0  0  0  0  0  0
    1.4562    2.7235   26.7267 H   0  0  0  0  0  0  0  0  0  0  0  0
    3.3805    3.7327   25.7708 H   0  0  0  0  0  0  0  0  0  0  0  0
    3.3296    2.0379   25.2776 H   0  0  0  0  0  0  0  0  0  0  0  0
    8.0393    2.1290   17.8931 H   0  0  0  0  0  0  0  0  0  0  0  0
  1  2  1  0
  2  3  1  0
  3  4  1  0
  4  5  2  0
  5  6  1  0
  6  7  1  0
  7  8  2  0
  7  9  1  0
  9 10  1  0
 10 11  1  0
 10 12  1  0
 12 13  1  0
 13 14  1  0
 14 15  1  0
 15 16  1  0
 16 17  1  0
  5 18  1  0
 18 19  2  0
 19  3  1  0
 17 12  1  0
  1 20  1  0
  1 21  1  0
  1 22  1  0
  2 23  1  0
  2 24  1  0
  4 25  1  0
  6 26  1  0
  9 27  1  0
  9 28  1  0
 10 29  1  0
 11 30  1  0
 11 31  1  0
 11 32  1  0
 12 33  1  0
 13 34  1  0
 13 35  1  0
 14 36  1  0
 14 37  1  0
 15 38  1  0
 16 39  1  0
 16 40  1  0
 17 41  1  0
 17 42  1  0
 18 43  1  0
M  END
>  <Energy>  (1033) 
511.17989277397697

>  <compound_id>  (1033) 
8583

>  <target_id>  (1033) 
1

>  <reference_id>  (1033) 
81

>  <inspiration_ids>  (1033) 
[81, 44]

>  <energy_score>  (1033) 
440.0742987442422

>  <distance_score>  (1033) 
5.336230124792209

>  <path>  (1033) 
/opt/xchem-fragalysis-2/maxwin/BulkDock/SCRATCH/511016/C8583-P81/C8583-P81.minimised.mol

>  <scratch_subdir>  (1033) 
/opt/xchem-fragalysis-2/maxwin/BulkDock/SCRATCH/511016/C8583-P81

>  <fragmenstein_runtime>  (1033) 
7.647215366363525

>  <fragmenstein_outcome>  (1033) 
too moved

>  <fragmenstein_mode>  (1033) 
expansion

>  <fragmenstein_error>  (1033) 


$$$$
C8583-P44
     RDKit          3D

 43 44  0  0  0  0  0  0  0  0999 V2000
    9.2817    2.1008   15.7047 C   0  0  0  0  0  0  0  0  0  0  0  0
    9.0363    0.6036   15.6348 C   0  0  0  0  0  0  0  0  0  0  0  0
    7.9774    0.1736   16.5327 N   0  0  0  0  0  0  0  0  0  0  0  0
    6.9126   -0.6660   16.2087 C   0  0  0  0  0  0  0  0  0  0  0  0
    5.8798   -0.7844   17.3199 C   0  0  0  0  0  0  0  0  0  0  0  0
    4.5096   -1.9380   17.2883 N   0  0  0  0  0  0  0  0  0  0  0  0
    3.0942   -1.7888   17.6806 C   0  0  0  0  0  0  0  0  0  0  0  0
    2.4964   -0.8522   18.1270 O   0  0  0  0  0  0  0  0  0  0  0  0
    2.2881   -3.3436   17.2295 C   0  0  0  0  0  0  0  0  0  0  0  0
    0.7248   -3.5250   17.2584 C   0  0  0  0  0  0  0  0  0  0  0  0
    0.4797   -4.8750   16.5115 C   0  0  0  0  0  0  0  0  0  0  0  0
   -0.3315   -2.4827   16.7046 C   0  0  0  0  0  0  0  0  0  0  0  0
   -0.1558   -0.9631   16.8661 C   0  0  0  0  0  0  0  0  0  0  0  0
   -1.4159   -0.2141   16.4362 C   0  0  0  0  0  0  0  0  0  0  0  0
   -2.6095   -0.5373   17.1968 N   0  0  0  0  0  0  0  0  0  0  0  0
   -2.6659   -1.8673   17.7661 C   0  0  0  0  0  0  0  0  0  0  0  0
   -1.7849   -2.9114   17.0918 C   0  0  0  0  0  0  0  0  0  0  0  0
    6.9688   -0.0676   18.3829 C   0  0  0  0  0  0  0  0  0  0  0  0
    8.1544    0.3410   17.8606 N   0  0  0  0  0  0  0  0  0  0  0  0
    9.6323    2.3984   16.6974 H   0  0  0  0  0  0  0  0  0  0  0  0
   10.0408    2.3967   14.9744 H   0  0  0  0  0  0  0  0  0  0  0  0
    8.3655    2.6643   15.5024 H   0  0  0  0  0  0  0  0  0  0  0  0
    8.7676    0.3075   14.6174 H   0  0  0  0  0  0  0  0  0  0  0  0
    9.9375    0.0478   15.9127 H   0  0  0  0  0  0  0  0  0  0  0  0
    6.9660   -1.1855   15.2594 H   0  0  0  0  0  0  0  0  0  0  0  0
    4.6387   -2.8351   16.8738 H   0  0  0  0  0  0  0  0  0  0  0  0
    2.6735   -3.7079   16.2786 H   0  0  0  0  0  0  0  0  0  0  0  0
    2.7063   -4.1610   17.8348 H   0  0  0  0  0  0  0  0  0  0  0  0
    0.4707   -3.7816   18.2846 H   0  0  0  0  0  0  0  0  0  0  0  0
    1.1184   -5.6669   16.9197 H   0  0  0  0  0  0  0  0  0  0  0  0
    0.7051   -4.7769   15.4437 H   0  0  0  0  0  0  0  0  0  0  0  0
   -0.5521   -5.2236   16.6068 H   0  0  0  0  0  0  0  0  0  0  0  0
   -0.3021   -2.6288   15.6137 H   0  0  0  0  0  0  0  0  0  0  0  0
    0.1247   -0.6409   17.8580 H   0  0  0  0  0  0  0  0  0  0  0  0
    0.6487   -0.6045   16.2234 H   0  0  0  0  0  0  0  0  0  0  0  0
   -1.6045   -0.4275   15.3762 H   0  0  0  0  0  0  0  0  0  0  0  0
   -1.2386    0.8649   16.5054 H   0  0  0  0  0  0  0  0  0  0  0  0
   -3.4417   -0.3365   16.6430 H   0  0  0  0  0  0  0  0  0  0  0  0
   -3.7057   -2.2167   17.7320 H   0  0  0  0  0  0  0  0  0  0  0  0
   -2.4413   -1.8091   18.8315 H   0  0  0  0  0  0  0  0  0  0  0  0
   -1.7803   -3.7981   17.7362 H   0  0  0  0  0  0  0  0  0  0  0  0
   -2.2890   -3.2268   16.1670 H   0  0  0  0  0  0  0  0  0  0  0  0
    6.9054    0.0170   19.4504 H   0  0  0  0  0  0  0  0  0  0  0  0
  1  2  1  0
  2  3  1  0
  3  4  1  0
  4  5  2  0
  5  6  1  0
  6  7  1  0
  7  8  2  0
  7  9  1  0
  9 10  1  0
 10 11  1  0
 10 12  1  0
 12 13  1  0
 13 14  1  0
 14 15  1  0
 15 16  1  0
 16 17  1  0
  5 18  1  0
 18 19  2  0
 19  3  1  0
 17 12  1  0
  1 20  1  0
  1 21  1  0
  1 22  1  0
  2 23  1  0
  2 24  1  0
  4 25  1  0
  6 26  1  0
  9 27  1  0
  9 28  1  0
 10 29  1  0
 11 30  1  0
 11 31  1  0
 11 32  1  0
 12 33  1  0
 13 34  1  0
 13 35  1  0
 14 36  1  0
 14 37  1  0
 15 38  1  0
 16 39  1  0
 16 40  1  0
 17 41  1  0
 17 42  1  0
 18 43  1  0
M  END
>  <Energy>  (1034) 
166.81050659961443

>  <compound_id>  (1034) 
8583

>  <target_id>  (1034) 
1

>  <reference_id>  (1034) 
44

>  <inspiration_ids>  (1034) 
[81, 44]

>  <energy_score>  (1034) 
95.7049125698801

>  <distance_score>  (1034) 
9.719605566009994

>  <path>  (1034) 
/opt/xchem-fragalysis-2/maxwin/BulkDock/SCRATCH/511016/C8583-P44/C8583-P44.minimised.mol

>  <scratch_subdir>  (1034) 
/opt/xchem-fragalysis-2/maxwin/BulkDock/SCRATCH/511016/C8583-P44

>  <fragmenstein_runtime>  (1034) 
10.711928606033325

>  <fragmenstein_outcome>  (1034) 
too moved

>  <fragmenstein_mode>  (1034) 
expansion

>  <fragmenstein_error>  (1034) 


$$$$
C8585-P81
     RDKit          3D

 50 52  0  0  0  0  0  0  0  0999 V2000
    1.2986    6.6191   21.8212 C   0  0  0  0  0  0  0  0  0  0  0  0
    1.8059    5.1686   21.7110 C   0  0  0  0  0  0  0  0  0  0  0  0
    0.9642    4.4729   20.6124 C   0  0  0  0  0  0  0  0  0  0  0  0
    3.1918    5.1442   21.1884 N   0  0  0  0  0  0  0  0  0  0  0  0
    4.2667    6.0789   21.3295 C   0  0  0  0  0  0  0  0  0  0  0  0
    4.3474    7.0834   21.9719 O   0  0  0  0  0  0  0  0  0  0  0  0
    5.3847    5.7310   20.4374 C   0  0  0  0  0  0  0  0  0  0  0  0
    5.3699    5.2995   19.1151 C   0  0  0  0  0  0  0  0  0  0  0  0
    6.7127    5.2029   18.7204 C   0  0  0  0  0  0  0  0  0  0  0  0
    7.5510    5.4999   19.7186 N   0  0  0  0  0  0  0  0  0  0  0  0
    6.7252    5.8622   20.7387 N   0  0  0  0  0  0  0  0  0  0  0  0
    7.2865    6.3266   21.9944 C   0  0  0  0  0  0  0  0  0  0  0  0
    7.6360    7.8211   21.9890 C   0  0  0  0  0  0  0  0  0  0  0  0
    8.8789    7.9691   22.8699 C   0  0  0  0  0  0  0  0  0  0  0  0
    9.1185    6.5984   23.4890 C   0  0  0  0  0  0  0  0  0  0  0  0
    8.5800    5.6372   22.4423 C   0  0  0  0  0  0  0  0  0  0  0  0
    1.6597    4.3745   23.0698 C   0  0  0  0  0  0  0  0  0  0  0  0
    0.1903    3.9858   23.4134 C   0  0  0  0  0  0  0  0  0  0  0  0
   -0.0496    3.6934   24.8997 C   0  0  0  0  0  0  0  0  0  0  0  0
    1.1445    3.1635   25.5464 N   0  0  0  0  0  0  0  0  0  0  0  0
    2.2015    4.1836   25.5617 C   0  0  0  0  0  0  0  0  0  0  0  0
    2.2649    5.0697   24.3025 C   0  0  0  0  0  0  0  0  0  0  0  0
    1.4022    7.1438   20.8637 H   0  0  0  0  0  0  0  0  0  0  0  0
    0.2418    6.6596   22.1034 H   0  0  0  0  0  0  0  0  0  0  0  0
    1.8589    7.1973   22.5616 H   0  0  0  0  0  0  0  0  0  0  0  0
    1.2450    3.4183   20.5152 H   0  0  0  0  0  0  0  0  0  0  0  0
    1.1323    4.9402   19.6340 H   0  0  0  0  0  0  0  0  0  0  0  0
   -0.1106    4.5254   20.8118 H   0  0  0  0  0  0  0  0  0  0  0  0
    3.5089    4.3561   20.6219 H   0  0  0  0  0  0  0  0  0  0  0  0
    4.4935    5.1143   18.5098 H   0  0  0  0  0  0  0  0  0  0  0  0
    7.1133    4.9076   17.7583 H   0  0  0  0  0  0  0  0  0  0  0  0
    6.5387    6.1359   22.7748 H   0  0  0  0  0  0  0  0  0  0  0  0
    7.8445    8.1979   20.9807 H   0  0  0  0  0  0  0  0  0  0  0  0
    6.8035    8.4126   22.3859 H   0  0  0  0  0  0  0  0  0  0  0  0
    8.7529    8.7435   23.6328 H   0  0  0  0  0  0  0  0  0  0  0  0
    9.7362    8.2542   22.2486 H   0  0  0  0  0  0  0  0  0  0  0  0
    8.5498    6.5010   24.4214 H   0  0  0  0  0  0  0  0  0  0  0  0
   10.1745    6.4233   23.7139 H   0  0  0  0  0  0  0  0  0  0  0  0
    8.3973    4.6376   22.8489 H   0  0  0  0  0  0  0  0  0  0  0  0
    9.3053    5.5449   21.6259 H   0  0  0  0  0  0  0  0  0  0  0  0
    2.2131    3.4322   22.9357 H   0  0  0  0  0  0  0  0  0  0  0  0
   -0.5024    4.7823   23.1206 H   0  0  0  0  0  0  0  0  0  0  0  0
   -0.0860    3.1034   22.8244 H   0  0  0  0  0  0  0  0  0  0  0  0
   -0.3824    4.6021   25.4173 H   0  0  0  0  0  0  0  0  0  0  0  0
   -0.8688    2.9724   24.9984 H   0  0  0  0  0  0  0  0  0  0  0  0
    1.4976    2.3689   25.0140 H   0  0  0  0  0  0  0  0  0  0  0  0
    2.0763    4.8230   26.4437 H   0  0  0  0  0  0  0  0  0  0  0  0
    3.1602    3.6726   25.6973 H   0  0  0  0  0  0  0  0  0  0  0  0
    3.3070    5.3506   24.1151 H   0  0  0  0  0  0  0  0  0  0  0  0
    1.7141    5.9960   24.5073 H   0  0  0  0  0  0  0  0  0  0  0  0
  1  2  1  0
  2  3  1  0
  2  4  1  0
  4  5  1  0
  5  6  2  0
  5  7  1  0
  7  8  2  0
  8  9  1  0
  9 10  2  0
 10 11  1  0
 11 12  1  0
 12 13  1  0
 13 14  1  0
 14 15  1  0
 15 16  1  0
  2 17  1  0
 17 18  1  0
 18 19  1  0
 19 20  1  0
 20 21  1  0
 21 22  1  0
 11  7  1  0
 16 12  1  0
 22 17  1  0
  1 23  1  0
  1 24  1  0
  1 25  1  0
  3 26  1  0
  3 27  1  0
  3 28  1  0
  4 29  1  0
  8 30  1  0
  9 31  1  0
 12 32  1  0
 13 33  1  0
 13 34  1  0
 14 35  1  0
 14 36  1  0
 15 37  1  0
 15 38  1  0
 16 39  1  0
 16 40  1  0
 17 41  1  0
 18 42  1  0
 18 43  1  0
 19 44  1  0
 19 45  1  0
 20 46  1  0
 21 47  1  0
 21 48  1  0
 22 49  1  0
 22 50  1  0
M  END
>  <Energy>  (1035) 
3.8288203898793398

>  <compound_id>  (1035) 
8585

>  <target_id>  (1035) 
1

>  <reference_id>  (1035) 
81

>  <inspiration_ids>  (1035) 
[81, 44]

>  <energy_score>  (1035) 
-54.03411897236725

>  <distance_score>  (1035) 
8.120611778997095

>  <path>  (1035) 
/opt/xchem-fragalysis-2/maxwin/BulkDock/SCRATCH/511016/C8585-P81/C8585-P81.minimised.mol

>  <scratch_subdir>  (1035) 
/opt/xchem-fragalysis-2/maxwin/BulkDock/SCRATCH/511016/C8585-P81

>  <fragmenstein_runtime>  (1035) 
19.126052379608154

>  <fragmenstein_outcome>  (1035) 
too moved

>  <fragmenstein_mode>  (1035) 
expansion

>  <fragmenstein_error>  (1035) 


$$$$
C8585-P44
     RDKit          3D

 50 52  0  0  0  0  0  0  0  0999 V2000
    4.8202    2.9308   23.7352 C   0  0  0  0  0  0  0  0  0  0  0  0
    4.4995    1.1211   23.1313 C   0  0  0  0  0  0  0  0  0  0  0  0
    2.9958    2.1112   23.0828 C   0  0  0  0  0  0  0  0  0  0  0  0
    4.9320    1.1127   21.2441 N   0  0  0  0  0  0  0  0  0  0  0  0
    6.3533    0.1849   20.1735 C   0  0  0  0  0  0  0  0  0  0  0  0
    7.1729   -0.6867   20.5087 O   0  0  0  0  0  0  0  0  0  0  0  0
    6.6981    0.6574   18.7536 C   0  0  0  0  0  0  0  0  0  0  0  0
    7.8602    0.1366   18.1313 C   0  0  0  0  0  0  0  0  0  0  0  0
    8.7663    0.9900   17.5213 C   0  0  0  0  0  0  0  0  0  0  0  0
    8.8152    1.9444   18.4338 N   0  0  0  0  0  0  0  0  0  0  0  0
    7.4815    2.1568   18.5753 N   0  0  0  0  0  0  0  0  0  0  0  0
    7.1107    3.4049   17.8322 C   0  0  0  0  0  0  0  0  0  0  0  0
    7.3982    4.6912   18.6265 C   0  0  0  0  0  0  0  0  0  0  0  0
    7.4607    5.8210   17.5942 C   0  0  0  0  0  0  0  0  0  0  0  0
    7.5040    5.1516   16.2258 C   0  0  0  0  0  0  0  0  0  0  0  0
    7.8817    3.7080   16.5191 C   0  0  0  0  0  0  0  0  0  0  0  0
    4.9721    0.5066   24.7011 C   0  0  0  0  0  0  0  0  0  0  0  0
    5.1696    1.4251   25.9812 C   0  0  0  0  0  0  0  0  0  0  0  0
    3.9493    1.6127   26.8606 C   0  0  0  0  0  0  0  0  0  0  0  0
    3.6771    0.3222   27.4669 N   0  0  0  0  0  0  0  0  0  0  0  0
    3.3687   -0.6302   26.4126 C   0  0  0  0  0  0  0  0  0  0  0  0
    4.3970   -0.7904   25.2612 C   0  0  0  0  0  0  0  0  0  0  0  0
    5.8015    3.1787   24.1690 H   0  0  0  0  0  0  0  0  0  0  0  0
    4.1451    3.1966   24.5667 H   0  0  0  0  0  0  0  0  0  0  0  0
    4.7281    3.6746   22.9332 H   0  0  0  0  0  0  0  0  0  0  0  0
    2.4111    1.8840   23.9661 H   0  0  0  0  0  0  0  0  0  0  0  0
    2.5830    1.9779   22.0824 H   0  0  0  0  0  0  0  0  0  0  0  0
    2.9490    3.2119   23.0264 H   0  0  0  0  0  0  0  0  0  0  0  0
    4.4010    1.6442   20.7254 H   0  0  0  0  0  0  0  0  0  0  0  0
    8.2793   -0.5510   18.8238 H   0  0  0  0  0  0  0  0  0  0  0  0
    9.6210    0.8030   16.8888 H   0  0  0  0  0  0  0  0  0  0  0  0
    6.0698    3.3993   17.5193 H   0  0  0  0  0  0  0  0  0  0  0  0
    8.3623    4.6254   19.1451 H   0  0  0  0  0  0  0  0  0  0  0  0
    6.6321    4.9033   19.3762 H   0  0  0  0  0  0  0  0  0  0  0  0
    8.3524    6.4353   17.7608 H   0  0  0  0  0  0  0  0  0  0  0  0
    6.5898    6.4807   17.6720 H   0  0  0  0  0  0  0  0  0  0  0  0
    8.2126    5.6371   15.5483 H   0  0  0  0  0  0  0  0  0  0  0  0
    6.5128    5.1926   15.7587 H   0  0  0  0  0  0  0  0  0  0  0  0
    8.9697    3.6516   16.6415 H   0  0  0  0  0  0  0  0  0  0  0  0
    7.5947    3.0400   15.7041 H   0  0  0  0  0  0  0  0  0  0  0  0
    6.0045    0.2799   24.5829 H   0  0  0  0  0  0  0  0  0  0  0  0
    5.6702    2.3764   25.8272 H   0  0  0  0  0  0  0  0  0  0  0  0
    5.9295    0.9140   26.6010 H   0  0  0  0  0  0  0  0  0  0  0  0
    4.1782    2.3316   27.6546 H   0  0  0  0  0  0  0  0  0  0  0  0
    3.0893    2.0002   26.3053 H   0  0  0  0  0  0  0  0  0  0  0  0
    2.8831    0.4002   28.1014 H   0  0  0  0  0  0  0  0  0  0  0  0
    3.2191   -1.6074   26.8854 H   0  0  0  0  0  0  0  0  0  0  0  0
    2.4177   -0.3011   26.0185 H   0  0  0  0  0  0  0  0  0  0  0  0
    4.0764   -1.4248   24.4365 H   0  0  0  0  0  0  0  0  0  0  0  0
    5.2339   -1.3537   25.7040 H   0  0  0  0  0  0  0  0  0  0  0  0
  1  2  1  0
  2  3  1  0
  2  4  1  0
  4  5  1  0
  5  6  2  0
  5  7  1  0
  7  8  2  0
  8  9  1  0
  9 10  2  0
 10 11  1  0
 11 12  1  0
 12 13  1  0
 13 14  1  0
 14 15  1  0
 15 16  1  0
  2 17  1  0
 17 18  1  0
 18 19  1  0
 19 20  1  0
 20 21  1  0
 21 22  1  0
 11  7  1  0
 16 12  1  0
 22 17  1  0
  1 23  1  0
  1 24  1  0
  1 25  1  0
  3 26  1  0
  3 27  1  0
  3 28  1  0
  4 29  1  0
  8 30  1  0
  9 31  1  0
 12 32  1  0
 13 33  1  0
 13 34  1  0
 14 35  1  0
 14 36  1  0
 15 37  1  0
 15 38  1  0
 16 39  1  0
 16 40  1  0
 17 41  1  0
 18 42  1  0
 18 43  1  0
 19 44  1  0
 19 45  1  0
 20 46  1  0
 21 47  1  0
 21 48  1  0
 22 49  1  0
 22 50  1  0
M  END
>  <Energy>  (1036) 
503.03071264214532

>  <compound_id>  (1036) 
8585

>  <target_id>  (1036) 
1

>  <reference_id>  (1036) 
44

>  <inspiration_ids>  (1036) 
[81, 44]

>  <energy_score>  (1036) 
445.1677732798999

>  <distance_score>  (1036) 
6.599116809761498

>  <path>  (1036) 
/opt/xchem-fragalysis-2/maxwin/BulkDock/SCRATCH/511016/C8585-P44/C8585-P44.minimised.mol

>  <scratch_subdir>  (1036) 
/opt/xchem-fragalysis-2/maxwin/BulkDock/SCRATCH/511016/C8585-P44

>  <fragmenstein_runtime>  (1036) 
10.921803951263428

>  <fragmenstein_outcome>  (1036) 
too moved

>  <fragmenstein_mode>  (1036) 
expansion

>  <fragmenstein_error>  (1036) 


$$$$
C8586-P81
     RDKit          3D

 50 52  0  0  0  0  0  0  0  0999 V2000
    7.3908   -0.1935   20.1723 C   0  0  0  0  0  0  0  0  0  0  0  0
    7.3244    1.3700   20.7352 C   0  0  0  0  0  0  0  0  0  0  0  0
    5.7235    1.2258   22.0863 C   0  0  0  0  0  0  0  0  0  0  0  0
    3.9127    1.7665   22.8501 C   0  0  0  0  0  0  0  0  0  0  0  0
    3.2026    3.2966   22.7245 C   0  0  0  0  0  0  0  0  0  0  0  0
    2.1191    3.6776   23.7431 C   0  0  0  0  0  0  0  0  0  0  0  0
    2.6523    3.7556   25.0946 N   0  0  0  0  0  0  0  0  0  0  0  0
    3.0834    2.4506   25.5609 C   0  0  0  0  0  0  0  0  0  0  0  0
    3.4446    1.4217   24.4569 C   0  0  0  0  0  0  0  0  0  0  0  0
    7.4839    1.8167   18.9173 N   0  0  0  0  0  0  0  0  0  0  0  0
    7.4038    3.1955   18.1925 C   0  0  0  0  0  0  0  0  0  0  0  0
    7.1337    4.2978   18.6269 O   0  0  0  0  0  0  0  0  0  0  0  0
    7.8324    3.0878   16.7975 C   0  0  0  0  0  0  0  0  0  0  0  0
    8.8792    2.2766   16.3548 C   0  0  0  0  0  0  0  0  0  0  0  0
    9.4753    2.9784   15.3008 C   0  0  0  0  0  0  0  0  0  0  0  0
    8.7434    4.0242   14.9266 N   0  0  0  0  0  0  0  0  0  0  0  0
    7.7187    4.0600   15.8307 N   0  0  0  0  0  0  0  0  0  0  0  0
    6.7539    5.1375   15.6959 C   0  0  0  0  0  0  0  0  0  0  0  0
    5.3223    4.8964   16.2100 C   0  0  0  0  0  0  0  0  0  0  0  0
    4.9663    6.1211   17.0510 C   0  0  0  0  0  0  0  0  0  0  0  0
    5.9163    7.2088   16.5769 C   0  0  0  0  0  0  0  0  0  0  0  0
    7.2140    6.4589   16.3216 C   0  0  0  0  0  0  0  0  0  0  0  0
    6.8786   -0.2986   19.2309 H   0  0  0  0  0  0  0  0  0  0  0  0
    8.3191   -0.5925   19.8597 H   0  0  0  0  0  0  0  0  0  0  0  0
    6.9976   -0.9388   20.8150 H   0  0  0  0  0  0  0  0  0  0  0  0
    8.1233    1.7144   21.3998 H   0  0  0  0  0  0  0  0  0  0  0  0
    6.3924    1.9933   22.4214 H   0  0  0  0  0  0  0  0  0  0  0  0
    5.5067    0.1562   21.9217 H   0  0  0  0  0  0  0  0  0  0  0  0
    3.2773    1.3021   22.0952 H   0  0  0  0  0  0  0  0  0  0  0  0
    3.9660    4.0858   22.7552 H   0  0  0  0  0  0  0  0  0  0  0  0
    2.7008    3.3569   21.7476 H   0  0  0  0  0  0  0  0  0  0  0  0
    1.2524    3.0134   23.6980 H   0  0  0  0  0  0  0  0  0  0  0  0
    1.7373    4.6711   23.4781 H   0  0  0  0  0  0  0  0  0  0  0  0
    3.4452    4.3958   25.0865 H   0  0  0  0  0  0  0  0  0  0  0  0
    3.8866    2.5595   26.2995 H   0  0  0  0  0  0  0  0  0  0  0  0
    2.2599    2.0288   26.1548 H   0  0  0  0  0  0  0  0  0  0  0  0
    2.4404    1.1004   24.3016 H   0  0  0  0  0  0  0  0  0  0  0  0
    4.0002    0.5916   24.9060 H   0  0  0  0  0  0  0  0  0  0  0  0
    7.6519    1.0890   18.2337 H   0  0  0  0  0  0  0  0  0  0  0  0
    9.3135    1.4340   16.8654 H   0  0  0  0  0  0  0  0  0  0  0  0
   10.3950    2.7603   14.7737 H   0  0  0  0  0  0  0  0  0  0  0  0
    6.6627    5.2978   14.6108 H   0  0  0  0  0  0  0  0  0  0  0  0
    4.6400    4.8385   15.3528 H   0  0  0  0  0  0  0  0  0  0  0  0
    5.1861    3.9734   16.7789 H   0  0  0  0  0  0  0  0  0  0  0  0
    5.1365    5.9115   18.1128 H   0  0  0  0  0  0  0  0  0  0  0  0
    3.9172    6.4091   16.9348 H   0  0  0  0  0  0  0  0  0  0  0  0
    5.5468    7.6539   15.6455 H   0  0  0  0  0  0  0  0  0  0  0  0
    6.0356    8.0075   17.3144 H   0  0  0  0  0  0  0  0  0  0  0  0
    7.7537    6.3011   17.2614 H   0  0  0  0  0  0  0  0  0  0  0  0
    7.8803    7.0165   15.6551 H   0  0  0  0  0  0  0  0  0  0  0  0
  1  2  1  0
  2  3  1  0
  3  4  1  0
  4  5  1  0
  5  6  1  0
  6  7  1  0
  7  8  1  0
  8  9  1  0
  2 10  1  0
 10 11  1  0
 11 12  2  0
 11 13  1  0
 13 14  2  0
 14 15  1  0
 15 16  2  0
 16 17  1  0
 17 18  1  0
 18 19  1  0
 19 20  1  0
 20 21  1  0
 21 22  1  0
  9  4  1  0
 17 13  1  0
 22 18  1  0
  1 23  1  0
  1 24  1  0
  1 25  1  0
  2 26  1  0
  3 27  1  0
  3 28  1  0
  4 29  1  0
  5 30  1  0
  5 31  1  0
  6 32  1  0
  6 33  1  0
  7 34  1  0
  8 35  1  0
  8 36  1  0
  9 37  1  0
  9 38  1  0
 10 39  1  0
 14 40  1  0
 15 41  1  0
 18 42  1  0
 19 43  1  0
 19 44  1  0
 20 45  1  0
 20 46  1  0
 21 47  1  0
 21 48  1  0
 22 49  1  0
 22 50  1  0
M  END
>  <Energy>  (1037) 
345.3942602853158

>  <compound_id>  (1037) 
8586

>  <target_id>  (1037) 
1

>  <reference_id>  (1037) 
81

>  <inspiration_ids>  (1037) 
[81, 44]

>  <energy_score>  (1037) 
325.10903340278514

>  <distance_score>  (1037) 
6.788117584645966

>  <path>  (1037) 
/opt/xchem-fragalysis-2/maxwin/BulkDock/SCRATCH/511016/C8586-P81/C8586-P81.minimised.mol

>  <scratch_subdir>  (1037) 
/opt/xchem-fragalysis-2/maxwin/BulkDock/SCRATCH/511016/C8586-P81

>  <fragmenstein_runtime>  (1037) 
11.398156642913818

>  <fragmenstein_outcome>  (1037) 
too moved

>  <fragmenstein_mode>  (1037) 
expansion

>  <fragmenstein_error>  (1037) 


$$$$
C8586-P44
     RDKit          3D

 50 52  0  0  0  0  0  0  0  0999 V2000
    4.9240   -0.3825   23.1742 C   0  0  0  0  0  0  0  0  0  0  0  0
    4.6848    0.8298   21.6991 C   0  0  0  0  0  0  0  0  0  0  0  0
    4.1377    2.1324   23.0957 C   0  0  0  0  0  0  0  0  0  0  0  0
    4.1745    2.2246   24.7096 C   0  0  0  0  0  0  0  0  0  0  0  0
    3.4000    3.5224   25.1330 C   0  0  0  0  0  0  0  0  0  0  0  0
    1.9934    3.2447   25.6612 C   0  0  0  0  0  0  0  0  0  0  0  0
    1.9731    2.3729   26.8325 N   0  0  0  0  0  0  0  0  0  0  0  0
    3.1858    1.5799   26.9938 C   0  0  0  0  0  0  0  0  0  0  0  0
    3.7780    1.0913   25.6679 C   0  0  0  0  0  0  0  0  0  0  0  0
    6.1720    0.4189   20.2476 N   0  0  0  0  0  0  0  0  0  0  0  0
    7.3834    1.4570   19.5129 C   0  0  0  0  0  0  0  0  0  0  0  0
    7.6180    2.6044   19.8010 O   0  0  0  0  0  0  0  0  0  0  0  0
    8.2053    1.0513   18.3116 C   0  0  0  0  0  0  0  0  0  0  0  0
    7.9950    0.2393   17.1890 C   0  0  0  0  0  0  0  0  0  0  0  0
    9.0653    0.3513   16.3008 C   0  0  0  0  0  0  0  0  0  0  0  0
    9.8733    1.2908   16.7568 N   0  0  0  0  0  0  0  0  0  0  0  0
    9.0466    2.0130   17.5985 N   0  0  0  0  0  0  0  0  0  0  0  0
    8.5933    3.2953   16.9875 C   0  0  0  0  0  0  0  0  0  0  0  0
    9.7328    4.0503   16.2396 C   0  0  0  0  0  0  0  0  0  0  0  0
   10.1665    5.2101   17.1462 C   0  0  0  0  0  0  0  0  0  0  0  0
    9.2384    5.1622   18.3508 C   0  0  0  0  0  0  0  0  0  0  0  0
    8.0147    4.4549   17.8056 C   0  0  0  0  0  0  0  0  0  0  0  0
    4.1960   -0.6015   23.9810 H   0  0  0  0  0  0  0  0  0  0  0  0
    5.5274    0.1253   23.9185 H   0  0  0  0  0  0  0  0  0  0  0  0
    4.9400   -1.4095   22.8377 H   0  0  0  0  0  0  0  0  0  0  0  0
    3.7636    0.8203   21.1937 H   0  0  0  0  0  0  0  0  0  0  0  0
    4.5982    3.1299   22.9188 H   0  0  0  0  0  0  0  0  0  0  0  0
    3.0764    2.2864   22.8391 H   0  0  0  0  0  0  0  0  0  0  0  0
    5.2203    2.4520   24.9607 H   0  0  0  0  0  0  0  0  0  0  0  0
    3.9771    4.0333   25.9167 H   0  0  0  0  0  0  0  0  0  0  0  0
    3.3401    4.2391   24.3054 H   0  0  0  0  0  0  0  0  0  0  0  0
    1.3905    2.8092   24.8584 H   0  0  0  0  0  0  0  0  0  0  0  0
    1.5113    4.1913   25.9287 H   0  0  0  0  0  0  0  0  0  0  0  0
    1.1474    1.7772   26.8119 H   0  0  0  0  0  0  0  0  0  0  0  0
    3.9340    2.1726   27.5342 H   0  0  0  0  0  0  0  0  0  0  0  0
    2.9632    0.7188   27.6345 H   0  0  0  0  0  0  0  0  0  0  0  0
    4.6679    0.4982   25.9116 H   0  0  0  0  0  0  0  0  0  0  0  0
    3.0728    0.4071   25.2185 H   0  0  0  0  0  0  0  0  0  0  0  0
    6.2555   -0.5127   19.8684 H   0  0  0  0  0  0  0  0  0  0  0  0
    7.0854   -0.2928   16.9572 H   0  0  0  0  0  0  0  0  0  0  0  0
    9.2753   -0.1614   15.3687 H   0  0  0  0  0  0  0  0  0  0  0  0
    7.8406    2.9839   16.2502 H   0  0  0  0  0  0  0  0  0  0  0  0
    9.3249    4.4710   15.3106 H   0  0  0  0  0  0  0  0  0  0  0  0
   10.5916    3.4428   15.9440 H   0  0  0  0  0  0  0  0  0  0  0  0
   10.0501    6.1591   16.6095 H   0  0  0  0  0  0  0  0  0  0  0  0
   11.2160    5.1391   17.4447 H   0  0  0  0  0  0  0  0  0  0  0  0
    9.0092    6.1619   18.7308 H   0  0  0  0  0  0  0  0  0  0  0  0
    9.6901    4.5815   19.1629 H   0  0  0  0  0  0  0  0  0  0  0  0
    7.4989    5.1402   17.1158 H   0  0  0  0  0  0  0  0  0  0  0  0
    7.2680    4.2260   18.5540 H   0  0  0  0  0  0  0  0  0  0  0  0
  1  2  1  0
  2  3  1  0
  3  4  1  0
  4  5  1  0
  5  6  1  0
  6  7  1  0
  7  8  1  0
  8  9  1  0
  2 10  1  0
 10 11  1  0
 11 12  2  0
 11 13  1  0
 13 14  2  0
 14 15  1  0
 15 16  2  0
 16 17  1  0
 17 18  1  0
 18 19  1  0
 19 20  1  0
 20 21  1  0
 21 22  1  0
  9  4  1  0
 17 13  1  0
 22 18  1  0
  1 23  1  0
  1 24  1  0
  1 25  1  0
  2 26  1  0
  3 27  1  0
  3 28  1  0
  4 29  1  0
  5 30  1  0
  5 31  1  0
  6 32  1  0
  6 33  1  0
  7 34  1  0
  8 35  1  0
  8 36  1  0
  9 37  1  0
  9 38  1  0
 10 39  1  0
 14 40  1  0
 15 41  1  0
 18 42  1  0
 19 43  1  0
 19 44  1  0
 20 45  1  0
 20 46  1  0
 21 47  1  0
 21 48  1  0
 22 49  1  0
 22 50  1  0
M  END
>  <Energy>  (1038) 
377.08999242559025

>  <compound_id>  (1038) 
8586

>  <target_id>  (1038) 
1

>  <reference_id>  (1038) 
44

>  <inspiration_ids>  (1038) 
[81, 44]

>  <energy_score>  (1038) 
356.8047655430611

>  <distance_score>  (1038) 
5.525503834056078

>  <path>  (1038) 
/opt/xchem-fragalysis-2/maxwin/BulkDock/SCRATCH/511016/C8586-P44/C8586-P44.minimised.mol

>  <scratch_subdir>  (1038) 
/opt/xchem-fragalysis-2/maxwin/BulkDock/SCRATCH/511016/C8586-P44

>  <fragmenstein_runtime>  (1038) 
8.525533199310303

>  <fragmenstein_outcome>  (1038) 
too moved

>  <fragmenstein_mode>  (1038) 
expansion

>  <fragmenstein_error>  (1038) 


$$$$
C8587-P81
     RDKit          3D

 51 53  0  0  0  0  0  0  0  0999 V2000
   -0.5713   -7.0272   14.6089 C   0  0  0  0  0  0  0  0  0  0  0  0
   -0.7312   -5.7640   15.4414 C   0  0  0  0  0  0  0  0  0  0  0  0
    0.2347   -4.6747   14.9816 C   0  0  0  0  0  0  0  0  0  0  0  0
    0.2108   -3.4676   15.8334 N   0  0  0  0  0  0  0  0  0  0  0  0
   -1.1426   -2.7304   15.8846 C   0  0  0  0  0  0  0  0  0  0  0  0
   -1.9246   -2.9093   17.1793 C   0  0  0  0  0  0  0  0  0  0  0  0
   -3.3008   -2.2546   17.1464 C   0  0  0  0  0  0  0  0  0  0  0  0
   -3.3766   -1.0624   16.3125 N   0  0  0  0  0  0  0  0  0  0  0  0
   -2.1206   -0.3544   16.1247 C   0  0  0  0  0  0  0  0  0  0  0  0
   -0.9952   -1.2304   15.5612 C   0  0  0  0  0  0  0  0  0  0  0  0
    1.2232   -3.4168   17.1970 S   0  0  0  0  0  0  0  0  0  0  0  0
    1.0992   -2.0276   17.6367 O   0  0  0  0  0  0  0  0  0  0  0  0
    0.8045   -4.4898   18.0747 O   0  0  0  0  0  0  0  0  0  0  0  0
    3.3600   -3.6392   16.9699 C   0  0  0  0  0  0  0  0  0  0  0  0
    3.9605   -2.6153   17.6041 C   0  0  0  0  0  0  0  0  0  0  0  0
    4.5992   -1.9545   16.7154 N   0  0  0  0  0  0  0  0  0  0  0  0
    5.0794   -2.8400   15.3685 N   0  0  0  0  0  0  0  0  0  0  0  0
    6.6250   -2.4486   15.1304 C   0  0  0  0  0  0  0  0  0  0  0  0
    7.1715   -1.1713   16.0344 C   0  0  0  0  0  0  0  0  0  0  0  0
    8.6055   -0.9207   15.8499 C   0  0  0  0  0  0  0  0  0  0  0  0
    8.6534   -1.2702   14.4320 C   0  0  0  0  0  0  0  0  0  0  0  0
    7.3065   -1.9630   13.9001 C   0  0  0  0  0  0  0  0  0  0  0  0
    4.2940   -4.1833   15.8766 C   0  0  0  0  0  0  0  0  0  0  0  0
    0.4413   -7.4329   14.7009 H   0  0  0  0  0  0  0  0  0  0  0  0
   -1.2758   -7.7943   14.9452 H   0  0  0  0  0  0  0  0  0  0  0  0
   -0.7670   -6.8265   13.5507 H   0  0  0  0  0  0  0  0  0  0  0  0
   -1.7675   -5.4199   15.3545 H   0  0  0  0  0  0  0  0  0  0  0  0
   -0.5735   -6.0097   16.4956 H   0  0  0  0  0  0  0  0  0  0  0  0
   -0.0089   -4.3705   13.9558 H   0  0  0  0  0  0  0  0  0  0  0  0
    1.2584   -5.0608   14.9323 H   0  0  0  0  0  0  0  0  0  0  0  0
   -1.7606   -3.1538   15.0801 H   0  0  0  0  0  0  0  0  0  0  0  0
   -2.0064   -3.9611   17.4695 H   0  0  0  0  0  0  0  0  0  0  0  0
   -1.3917   -2.3886   17.9511 H   0  0  0  0  0  0  0  0  0  0  0  0
   -3.6069   -2.0127   18.1711 H   0  0  0  0  0  0  0  0  0  0  0  0
   -4.0337   -2.9745   16.7652 H   0  0  0  0  0  0  0  0  0  0  0  0
   -4.1008   -0.4301   16.6539 H   0  0  0  0  0  0  0  0  0  0  0  0
   -2.2920    0.4708   15.4227 H   0  0  0  0  0  0  0  0  0  0  0  0
   -1.8068    0.1280   17.0464 H   0  0  0  0  0  0  0  0  0  0  0  0
   -0.9712   -1.1281   14.4678 H   0  0  0  0  0  0  0  0  0  0  0  0
   -0.0455   -0.8157   15.9074 H   0  0  0  0  0  0  0  0  0  0  0  0
    3.5976   -1.9077   18.3061 H   0  0  0  0  0  0  0  0  0  0  0  0
    7.1471   -3.3796   15.3473 H   0  0  0  0  0  0  0  0  0  0  0  0
    6.6267   -1.0034   16.9536 H   0  0  0  0  0  0  0  0  0  0  0  0
    6.8995   -0.1663   15.8271 H   0  0  0  0  0  0  0  0  0  0  0  0
    9.3050   -1.5681   16.3363 H   0  0  0  0  0  0  0  0  0  0  0  0
    8.9140    0.1122   16.0486 H   0  0  0  0  0  0  0  0  0  0  0  0
    9.4830   -1.9954   14.4266 H   0  0  0  0  0  0  0  0  0  0  0  0
    8.9002   -0.3625   13.8659 H   0  0  0  0  0  0  0  0  0  0  0  0
    7.6062   -2.8029   13.3378 H   0  0  0  0  0  0  0  0  0  0  0  0
    6.7287   -1.3743   13.1877 H   0  0  0  0  0  0  0  0  0  0  0  0
    4.1543   -4.8731   15.0557 H   0  0  0  0  0  0  0  0  0  0  0  0
  1  2  1  0
  2  3  1  0
  3  4  1  0
  4  5  1  0
  5  6  1  0
  6  7  1  0
  7  8  1  0
  8  9  1  0
  9 10  1  0
  4 11  1  0
 11 12  2  0
 11 13  2  0
 11 14  1  0
 14 15  1  0
 15 16  2  0
 16 17  1  0
 17 18  1  0
 18 19  1  0
 19 20  1  0
 20 21  1  0
 21 22  1  0
 17 23  1  0
 10  5  1  0
 23 14  2  0
 22 18  1  0
  1 24  1  0
  1 25  1  0
  1 26  1  0
  2 27  1  0
  2 28  1  0
  3 29  1  0
  3 30  1  0
  5 31  1  0
  6 32  1  0
  6 33  1  0
  7 34  1  0
  7 35  1  0
  8 36  1  0
  9 37  1  0
  9 38  1  0
 10 39  1  0
 10 40  1  0
 15 41  1  0
 18 42  1  0
 19 43  1  0
 19 44  1  0
 20 45  1  0
 20 46  1  0
 21 47  1  0
 21 48  1  0
 22 49  1  0
 22 50  1  0
 23 51  1  0
M  END
>  <Energy>  (1039) 
209.61217763608641

>  <compound_id>  (1039) 
8587

>  <target_id>  (1039) 
1

>  <reference_id>  (1039) 
81

>  <inspiration_ids>  (1039) 
[81, 44]

>  <energy_score>  (1039) 
184.44704604171096

>  <distance_score>  (1039) 
10.873796565939575

>  <path>  (1039) 
/opt/xchem-fragalysis-2/maxwin/BulkDock/SCRATCH/511016/C8587-P81/C8587-P81.minimised.mol

>  <scratch_subdir>  (1039) 
/opt/xchem-fragalysis-2/maxwin/BulkDock/SCRATCH/511016/C8587-P81

>  <fragmenstein_runtime>  (1039) 
9.243780374526978

>  <fragmenstein_outcome>  (1039) 
too moved

>  <fragmenstein_mode>  (1039) 
expansion

>  <fragmenstein_error>  (1039) 


$$$$
C8587-P44
     RDKit          3D

 51 53  0  0  0  0  0  0  0  0999 V2000
    0.2387   -1.1334   11.5065 C   0  0  0  0  0  0  0  0  0  0  0  0
    0.5737   -2.5927   11.2330 C   0  0  0  0  0  0  0  0  0  0  0  0
   -0.0311   -3.5370   12.2647 C   0  0  0  0  0  0  0  0  0  0  0  0
    0.7772   -3.6073   13.5711 N   0  0  0  0  0  0  0  0  0  0  0  0
   -0.2901   -3.6711   14.7414 C   0  0  0  0  0  0  0  0  0  0  0  0
    0.1749   -4.1713   16.0808 C   0  0  0  0  0  0  0  0  0  0  0  0
   -0.9423   -4.1561   17.1276 C   0  0  0  0  0  0  0  0  0  0  0  0
   -1.6440   -2.8821   17.2579 N   0  0  0  0  0  0  0  0  0  0  0  0
   -1.0811   -1.8361   16.4150 C   0  0  0  0  0  0  0  0  0  0  0  0
   -0.9823   -2.2861   14.9500 C   0  0  0  0  0  0  0  0  0  0  0  0
    2.0839   -4.8964   13.3545 S   0  0  0  0  0  0  0  0  0  0  0  0
    1.7650   -6.0136   14.2161 O   0  0  0  0  0  0  0  0  0  0  0  0
    2.2609   -5.0972   11.9291 O   0  0  0  0  0  0  0  0  0  0  0  0
    3.7189   -4.4457   13.8184 C   0  0  0  0  0  0  0  0  0  0  0  0
    4.4763   -5.0004   14.8363 C   0  0  0  0  0  0  0  0  0  0  0  0
    5.6031   -4.3285   15.0745 N   0  0  0  0  0  0  0  0  0  0  0  0
    5.5866   -3.1971   14.3148 N   0  0  0  0  0  0  0  0  0  0  0  0
    6.7025   -2.1118   14.3526 C   0  0  0  0  0  0  0  0  0  0  0  0
    7.2128   -0.9767   15.3486 C   0  0  0  0  0  0  0  0  0  0  0  0
    8.5776   -0.4206   14.9270 C   0  0  0  0  0  0  0  0  0  0  0  0
    9.2834   -1.7262   14.8834 C   0  0  0  0  0  0  0  0  0  0  0  0
    8.1169   -2.6703   14.4552 C   0  0  0  0  0  0  0  0  0  0  0  0
    4.6916   -3.6333   13.2423 C   0  0  0  0  0  0  0  0  0  0  0  0
   -0.8441   -0.9719   11.4929 H   0  0  0  0  0  0  0  0  0  0  0  0
    0.6179   -0.8064   12.4773 H   0  0  0  0  0  0  0  0  0  0  0  0
    0.6834   -0.4943   10.7372 H   0  0  0  0  0  0  0  0  0  0  0  0
    1.6557   -2.7218   11.1541 H   0  0  0  0  0  0  0  0  0  0  0  0
    0.1590   -2.8476   10.2499 H   0  0  0  0  0  0  0  0  0  0  0  0
   -1.0607   -3.2184   12.4638 H   0  0  0  0  0  0  0  0  0  0  0  0
   -0.1333   -4.5481   11.8524 H   0  0  0  0  0  0  0  0  0  0  0  0
   -1.0599   -4.3760   14.3915 H   0  0  0  0  0  0  0  0  0  0  0  0
    1.0181   -3.5764   16.4303 H   0  0  0  0  0  0  0  0  0  0  0  0
    0.4707   -5.2048   15.9547 H   0  0  0  0  0  0  0  0  0  0  0  0
   -1.6869   -4.9186   16.8695 H   0  0  0  0  0  0  0  0  0  0  0  0
   -0.5239   -4.4596   18.0939 H   0  0  0  0  0  0  0  0  0  0  0  0
   -1.5835   -2.6067   18.2421 H   0  0  0  0  0  0  0  0  0  0  0  0
   -0.0959   -1.5297   16.7865 H   0  0  0  0  0  0  0  0  0  0  0  0
   -1.7247   -0.9513   16.4671 H   0  0  0  0  0  0  0  0  0  0  0  0
   -0.4827   -1.4990   14.3779 H   0  0  0  0  0  0  0  0  0  0  0  0
   -1.9982   -2.3512   14.5369 H   0  0  0  0  0  0  0  0  0  0  0  0
    4.2721   -5.8868   15.4107 H   0  0  0  0  0  0  0  0  0  0  0  0
    6.5434   -1.6233   13.3805 H   0  0  0  0  0  0  0  0  0  0  0  0
    7.4857   -1.4847   16.2024 H   0  0  0  0  0  0  0  0  0  0  0  0
    6.6523   -0.1797   15.7926 H   0  0  0  0  0  0  0  0  0  0  0  0
    9.0011    0.2513   15.6806 H   0  0  0  0  0  0  0  0  0  0  0  0
    8.5808    0.0904   13.9642 H   0  0  0  0  0  0  0  0  0  0  0  0
    9.6996   -1.8821   15.8695 H   0  0  0  0  0  0  0  0  0  0  0  0
   10.1769   -1.7719   14.2591 H   0  0  0  0  0  0  0  0  0  0  0  0
    8.1810   -2.6061   13.4064 H   0  0  0  0  0  0  0  0  0  0  0  0
    8.2058   -3.6637   14.8877 H   0  0  0  0  0  0  0  0  0  0  0  0
    4.7551   -3.2277   12.2398 H   0  0  0  0  0  0  0  0  0  0  0  0
  1  2  1  0
  2  3  1  0
  3  4  1  0
  4  5  1  0
  5  6  1  0
  6  7  1  0
  7  8  1  0
  8  9  1  0
  9 10  1  0
  4 11  1  0
 11 12  2  0
 11 13  2  0
 11 14  1  0
 14 15  1  0
 15 16  2  0
 16 17  1  0
 17 18  1  0
 18 19  1  0
 19 20  1  0
 20 21  1  0
 21 22  1  0
 17 23  1  0
 10  5  1  0
 23 14  2  0
 22 18  1  0
  1 24  1  0
  1 25  1  0
  1 26  1  0
  2 27  1  0
  2 28  1  0
  3 29  1  0
  3 30  1  0
  5 31  1  0
  6 32  1  0
  6 33  1  0
  7 34  1  0
  7 35  1  0
  8 36  1  0
  9 37  1  0
  9 38  1  0
 10 39  1  0
 10 40  1  0
 15 41  1  0
 18 42  1  0
 19 43  1  0
 19 44  1  0
 20 45  1  0
 20 46  1  0
 21 47  1  0
 21 48  1  0
 22 49  1  0
 22 50  1  0
 23 51  1  0
M  END
>  <Energy>  (1040) 
91.36371897815657

>  <compound_id>  (1040) 
8587

>  <target_id>  (1040) 
1

>  <reference_id>  (1040) 
44

>  <inspiration_ids>  (1040) 
[81, 44]

>  <energy_score>  (1040) 
66.19858738378213

>  <distance_score>  (1040) 
11.121112602195918

>  <path>  (1040) 
/opt/xchem-fragalysis-2/maxwin/BulkDock/SCRATCH/511016/C8587-P44/C8587-P44.minimised.mol

>  <scratch_subdir>  (1040) 
/opt/xchem-fragalysis-2/maxwin/BulkDock/SCRATCH/511016/C8587-P44

>  <fragmenstein_runtime>  (1040) 
8.994969606399536

>  <fragmenstein_outcome>  (1040) 
too moved

>  <fragmenstein_mode>  (1040) 
expansion

>  <fragmenstein_error>  (1040) 


$$$$
C8589-P81
     RDKit          3D

 41 43  0  0  0  0  0  0  0  0999 V2000
    3.8860    1.9311   22.2645 O   0  0  0  0  0  0  0  0  0  0  0  0
    4.3760    0.9204   22.6800 C   0  0  0  0  0  0  0  0  0  0  0  0
    5.6068   -0.1959   21.9429 N   0  0  0  0  0  0  0  0  0  0  0  0
    6.6109   -0.0799   20.4232 C   0  0  0  0  0  0  0  0  0  0  0  0
    7.5037   -0.9391   20.1539 C   0  0  0  0  0  0  0  0  0  0  0  0
    8.2730   -0.9824   19.1044 N   0  0  0  0  0  0  0  0  0  0  0  0
    7.7218   -0.1220   18.3079 N   0  0  0  0  0  0  0  0  0  0  0  0
    8.2122    0.2832   16.9220 C   0  0  0  0  0  0  0  0  0  0  0  0
    8.5956    1.7647   16.7009 C   0  0  0  0  0  0  0  0  0  0  0  0
    9.9801    1.8090   16.0588 C   0  0  0  0  0  0  0  0  0  0  0  0
   10.4070    0.3802   15.7764 C   0  0  0  0  0  0  0  0  0  0  0  0
    9.1659   -0.4690   15.9522 C   0  0  0  0  0  0  0  0  0  0  0  0
    7.2067    0.6892   19.4284 C   0  0  0  0  0  0  0  0  0  0  0  0
    3.8036    0.6178   24.5492 C   0  0  0  0  0  0  0  0  0  0  0  0
    2.8146    1.7605   25.0280 C   0  0  0  0  0  0  0  0  0  0  0  0
    2.4521    1.7275   26.5184 C   0  0  0  0  0  0  0  0  0  0  0  0
    3.2989    0.8412   27.3086 N   0  0  0  0  0  0  0  0  0  0  0  0
    3.2045   -0.5321   26.8196 C   0  0  0  0  0  0  0  0  0  0  0  0
    3.6935   -0.7256   25.3725 C   0  0  0  0  0  0  0  0  0  0  0  0
    5.7443   -1.0119   22.5162 H   0  0  0  0  0  0  0  0  0  0  0  0
    7.3849   -1.7313   20.7804 H   0  0  0  0  0  0  0  0  0  0  0  0
    7.3052    0.0655   16.3588 H   0  0  0  0  0  0  0  0  0  0  0  0
    8.5869    2.3855   17.5906 H   0  0  0  0  0  0  0  0  0  0  0  0
    7.8712    2.2405   16.0333 H   0  0  0  0  0  0  0  0  0  0  0  0
   10.7030    2.3057   16.7147 H   0  0  0  0  0  0  0  0  0  0  0  0
    9.9489    2.3936   15.1328 H   0  0  0  0  0  0  0  0  0  0  0  0
   11.2005    0.0548   16.4510 H   0  0  0  0  0  0  0  0  0  0  0  0
   10.8127    0.2835   14.7631 H   0  0  0  0  0  0  0  0  0  0  0  0
    8.6911   -0.5148   14.9632 H   0  0  0  0  0  0  0  0  0  0  0  0
    9.3969   -1.5040   16.1643 H   0  0  0  0  0  0  0  0  0  0  0  0
    7.3551    1.7079   19.1761 H   0  0  0  0  0  0  0  0  0  0  0  0
    4.6597    0.9511   25.1256 H   0  0  0  0  0  0  0  0  0  0  0  0
    1.9076    1.8065   24.4384 H   0  0  0  0  0  0  0  0  0  0  0  0
    3.2352    2.7465   24.8166 H   0  0  0  0  0  0  0  0  0  0  0  0
    2.5433    2.7425   26.9230 H   0  0  0  0  0  0  0  0  0  0  0  0
    1.3984    1.4541   26.6506 H   0  0  0  0  0  0  0  0  0  0  0  0
    3.0002    0.8706   28.2825 H   0  0  0  0  0  0  0  0  0  0  0  0
    2.1740   -0.8924   26.9233 H   0  0  0  0  0  0  0  0  0  0  0  0
    3.8047   -1.1752   27.4742 H   0  0  0  0  0  0  0  0  0  0  0  0
    3.0606   -1.4891   24.9153 H   0  0  0  0  0  0  0  0  0  0  0  0
    4.6812   -1.1996   25.4029 H   0  0  0  0  0  0  0  0  0  0  0  0
  1  2  2  0
  2  3  1  0
  3  4  1  0
  4  5  1  0
  5  6  2  0
  6  7  1  0
  7  8  1  0
  8  9  1  0
  9 10  1  0
 10 11  1  0
 11 12  1  0
  7 13  1  0
  2 14  1  0
 14 15  1  0
 15 16  1  0
 16 17  1  0
 17 18  1  0
 18 19  1  0
 13  4  2  0
 19 14  1  0
 12  8  1  0
  3 20  1  0
  5 21  1  0
  8 22  1  0
  9 23  1  0
  9 24  1  0
 10 25  1  0
 10 26  1  0
 11 27  1  0
 11 28  1  0
 12 29  1  0
 12 30  1  0
 13 31  1  0
 14 32  1  0
 15 33  1  0
 15 34  1  0
 16 35  1  0
 16 36  1  0
 17 37  1  0
 18 38  1  0
 18 39  1  0
 19 40  1  0
 19 41  1  0
M  END
>  <Energy>  (1041) 
295.17618061545909

>  <compound_id>  (1041) 
8589

>  <target_id>  (1041) 
1

>  <reference_id>  (1041) 
81

>  <inspiration_ids>  (1041) 
[81, 44]

>  <energy_score>  (1041) 
239.06633900468358

>  <distance_score>  (1041) 
6.32617930494417

>  <path>  (1041) 
/opt/xchem-fragalysis-2/maxwin/BulkDock/SCRATCH/511016/C8589-P81/C8589-P81.minimised.mol

>  <scratch_subdir>  (1041) 
/opt/xchem-fragalysis-2/maxwin/BulkDock/SCRATCH/511016/C8589-P81

>  <fragmenstein_runtime>  (1041) 
7.766861915588379

>  <fragmenstein_outcome>  (1041) 
too moved

>  <fragmenstein_mode>  (1041) 
expansion

>  <fragmenstein_error>  (1041) 


$$$$
C8589-P44
     RDKit          3D

 41 43  0  0  0  0  0  0  0  0999 V2000
    5.5857    5.7687   22.3943 O   0  0  0  0  0  0  0  0  0  0  0  0
    4.7455    5.5978   21.5710 C   0  0  0  0  0  0  0  0  0  0  0  0
    4.8758    5.3892   19.9747 N   0  0  0  0  0  0  0  0  0  0  0  0
    6.0791    5.2561   19.1179 C   0  0  0  0  0  0  0  0  0  0  0  0
    7.5066    5.3198   19.3074 C   0  0  0  0  0  0  0  0  0  0  0  0
    8.2594    4.7448   18.3498 N   0  0  0  0  0  0  0  0  0  0  0  0
    7.3507    4.3966   17.4284 N   0  0  0  0  0  0  0  0  0  0  0  0
    7.7425    3.8470   16.1423 C   0  0  0  0  0  0  0  0  0  0  0  0
    8.1691    4.9550   15.1607 C   0  0  0  0  0  0  0  0  0  0  0  0
    9.5013    4.5055   14.5741 C   0  0  0  0  0  0  0  0  0  0  0  0
   10.1088    3.6450   15.6659 C   0  0  0  0  0  0  0  0  0  0  0  0
    8.9187    2.8608   16.2025 C   0  0  0  0  0  0  0  0  0  0  0  0
    6.0745    4.7938   17.7844 C   0  0  0  0  0  0  0  0  0  0  0  0
    3.1242    5.4896   22.1719 C   0  0  0  0  0  0  0  0  0  0  0  0
    2.2657    4.1699   22.1763 C   0  0  0  0  0  0  0  0  0  0  0  0
    1.0407    4.1988   23.1390 C   0  0  0  0  0  0  0  0  0  0  0  0
    1.4188    4.1864   24.5518 N   0  0  0  0  0  0  0  0  0  0  0  0
    2.6799    4.9096   24.7551 C   0  0  0  0  0  0  0  0  0  0  0  0
    2.9916    5.9973   23.6839 C   0  0  0  0  0  0  0  0  0  0  0  0
    3.9653    5.1879   19.5827 H   0  0  0  0  0  0  0  0  0  0  0  0
    8.0217    5.7695   20.1456 H   0  0  0  0  0  0  0  0  0  0  0  0
    6.8588    3.3289   15.7554 H   0  0  0  0  0  0  0  0  0  0  0  0
    8.2951    5.9201   15.6666 H   0  0  0  0  0  0  0  0  0  0  0  0
    7.4232    5.1002   14.3718 H   0  0  0  0  0  0  0  0  0  0  0  0
   10.1410    5.3518   14.3073 H   0  0  0  0  0  0  0  0  0  0  0  0
    9.3375    3.9112   13.6687 H   0  0  0  0  0  0  0  0  0  0  0  0
   10.5321    4.2837   16.4490 H   0  0  0  0  0  0  0  0  0  0  0  0
   10.9002    2.9914   15.2883 H   0  0  0  0  0  0  0  0  0  0  0  0
    8.7179    2.0152   15.5333 H   0  0  0  0  0  0  0  0  0  0  0  0
    9.1078    2.4475   17.1980 H   0  0  0  0  0  0  0  0  0  0  0  0
    5.2491    4.5911   17.1159 H   0  0  0  0  0  0  0  0  0  0  0  0
    2.5972    6.2284   21.5510 H   0  0  0  0  0  0  0  0  0  0  0  0
    1.9231    3.9694   21.1550 H   0  0  0  0  0  0  0  0  0  0  0  0
    2.8915    3.3301   22.4889 H   0  0  0  0  0  0  0  0  0  0  0  0
    0.4521    5.1019   22.9344 H   0  0  0  0  0  0  0  0  0  0  0  0
    0.3670    3.3634   22.9386 H   0  0  0  0  0  0  0  0  0  0  0  0
    1.5448    3.2306   24.8799 H   0  0  0  0  0  0  0  0  0  0  0  0
    3.5100    4.1920   24.7655 H   0  0  0  0  0  0  0  0  0  0  0  0
    2.6539    5.3774   25.7452 H   0  0  0  0  0  0  0  0  0  0  0  0
    3.9014    6.5304   23.9797 H   0  0  0  0  0  0  0  0  0  0  0  0
    2.1873    6.7454   23.7145 H   0  0  0  0  0  0  0  0  0  0  0  0
  1  2  2  0
  2  3  1  0
  3  4  1  0
  4  5  1  0
  5  6  2  0
  6  7  1  0
  7  8  1  0
  8  9  1  0
  9 10  1  0
 10 11  1  0
 11 12  1  0
  7 13  1  0
  2 14  1  0
 14 15  1  0
 15 16  1  0
 16 17  1  0
 17 18  1  0
 18 19  1  0
 13  4  2  0
 19 14  1  0
 12  8  1  0
  3 20  1  0
  5 21  1  0
  8 22  1  0
  9 23  1  0
  9 24  1  0
 10 25  1  0
 10 26  1  0
 11 27  1  0
 11 28  1  0
 12 29  1  0
 12 30  1  0
 13 31  1  0
 14 32  1  0
 15 33  1  0
 15 34  1  0
 16 35  1  0
 16 36  1  0
 17 37  1  0
 18 38  1  0
 18 39  1  0
 19 40  1  0
 19 41  1  0
M  END
>  <Energy>  (1042) 
56.831135560539067

>  <compound_id>  (1042) 
8589

>  <target_id>  (1042) 
1

>  <reference_id>  (1042) 
44

>  <inspiration_ids>  (1042) 
[81, 44]

>  <energy_score>  (1042) 
14.42348732032599

>  <distance_score>  (1042) 
7.871640289837672

>  <path>  (1042) 
/opt/xchem-fragalysis-2/maxwin/BulkDock/SCRATCH/511016/C8589-P44/C8589-P44.minimised.mol

>  <scratch_subdir>  (1042) 
/opt/xchem-fragalysis-2/maxwin/BulkDock/SCRATCH/511016/C8589-P44

>  <fragmenstein_runtime>  (1042) 
3.1638381481170654

>  <fragmenstein_outcome>  (1042) 
too moved

>  <fragmenstein_mode>  (1042) 
expansion

>  <fragmenstein_error>  (1042) 


$$$$
C8590-P81
     RDKit          3D

 44 46  0  0  0  0  0  0  0  0999 V2000
    7.5305    1.3566   20.3646 O   0  0  0  0  0  0  0  0  0  0  0  0
    6.9998    0.2811   20.3879 C   0  0  0  0  0  0  0  0  0  0  0  0
    7.5624   -0.5981   19.2583 C   0  0  0  0  0  0  0  0  0  0  0  0
    8.1890    0.1026   17.5828 C   0  0  0  0  0  0  0  0  0  0  0  0
    8.3610    1.4887   17.1420 C   0  0  0  0  0  0  0  0  0  0  0  0
    9.2228    1.4810   16.0806 C   0  0  0  0  0  0  0  0  0  0  0  0
    9.5810    0.1835   15.8969 N   0  0  0  0  0  0  0  0  0  0  0  0
   10.6237   -0.2561   14.9705 C   0  0  0  0  0  0  0  0  0  0  0  0
   11.9140    0.5913   15.1030 C   0  0  0  0  0  0  0  0  0  0  0  0
   13.0750   -0.3912   15.0489 C   0  0  0  0  0  0  0  0  0  0  0  0
   12.5027   -1.6356   15.6970 C   0  0  0  0  0  0  0  0  0  0  0  0
   11.1112   -1.7129   15.0890 C   0  0  0  0  0  0  0  0  0  0  0  0
    8.9218   -0.6692   16.7230 N   0  0  0  0  0  0  0  0  0  0  0  0
    5.5508   -0.0477   21.5646 N   0  0  0  0  0  0  0  0  0  0  0  0
    4.5515    1.1374   22.7426 C   0  0  0  0  0  0  0  0  0  0  0  0
    3.9825    0.8539   24.5836 C   0  0  0  0  0  0  0  0  0  0  0  0
    2.9683    1.8992   25.2195 C   0  0  0  0  0  0  0  0  0  0  0  0
    3.0129    3.3147   24.8723 N   0  0  0  0  0  0  0  0  0  0  0  0
    3.1116    3.5868   23.4376 C   0  0  0  0  0  0  0  0  0  0  0  0
    3.1872    2.3274   22.5658 C   0  0  0  0  0  0  0  0  0  0  0  0
    6.6965   -0.9509   18.7449 H   0  0  0  0  0  0  0  0  0  0  0  0
    8.4248   -1.0943   19.4727 H   0  0  0  0  0  0  0  0  0  0  0  0
    7.9447    2.3693   17.6135 H   0  0  0  0  0  0  0  0  0  0  0  0
    9.6442    2.2916   15.5046 H   0  0  0  0  0  0  0  0  0  0  0  0
   10.1880   -0.0956   13.9782 H   0  0  0  0  0  0  0  0  0  0  0  0
   11.9509    1.1288   16.0581 H   0  0  0  0  0  0  0  0  0  0  0  0
   11.9882    1.3377   14.3049 H   0  0  0  0  0  0  0  0  0  0  0  0
   13.9605   -0.0170   15.5704 H   0  0  0  0  0  0  0  0  0  0  0  0
   13.3507   -0.5946   14.0072 H   0  0  0  0  0  0  0  0  0  0  0  0
   13.0985   -2.5276   15.4838 H   0  0  0  0  0  0  0  0  0  0  0  0
   12.4443   -1.5102   16.7827 H   0  0  0  0  0  0  0  0  0  0  0  0
   10.4588   -2.3774   15.6480 H   0  0  0  0  0  0  0  0  0  0  0  0
   11.2144   -2.1420   14.0855 H   0  0  0  0  0  0  0  0  0  0  0  0
    5.3006   -1.0116   21.5071 H   0  0  0  0  0  0  0  0  0  0  0  0
    3.8687    0.7725   21.9858 H   0  0  0  0  0  0  0  0  0  0  0  0
    4.8085    0.8979   25.3003 H   0  0  0  0  0  0  0  0  0  0  0  0
    3.6885   -0.1724   24.8607 H   0  0  0  0  0  0  0  0  0  0  0  0
    1.9414    1.6287   25.0230 H   0  0  0  0  0  0  0  0  0  0  0  0
    3.0626    1.8201   26.3103 H   0  0  0  0  0  0  0  0  0  0  0  0
    3.6506    3.8765   25.4258 H   0  0  0  0  0  0  0  0  0  0  0  0
    3.9231    4.2868   23.2152 H   0  0  0  0  0  0  0  0  0  0  0  0
    2.1957    4.1251   23.1624 H   0  0  0  0  0  0  0  0  0  0  0  0
    2.3903    1.7915   22.9741 H   0  0  0  0  0  0  0  0  0  0  0  0
    2.8090    2.4876   21.5458 H   0  0  0  0  0  0  0  0  0  0  0  0
  1  2  2  0
  2  3  1  0
  3  4  1  0
  4  5  1  0
  5  6  2  0
  6  7  1  0
  7  8  1  0
  8  9  1  0
  9 10  1  0
 10 11  1  0
 11 12  1  0
  7 13  1  0
  2 14  1  0
 14 15  1  0
 15 16  1  0
 16 17  1  0
 17 18  1  0
 18 19  1  0
 19 20  1  0
 13  4  2  0
 20 15  1  0
 12  8  1  0
  3 21  1  0
  3 22  1  0
  5 23  1  0
  6 24  1  0
  8 25  1  0
  9 26  1  0
  9 27  1  0
 10 28  1  0
 10 29  1  0
 11 30  1  0
 11 31  1  0
 12 32  1  0
 12 33  1  0
 14 34  1  0
 15 35  1  0
 16 36  1  0
 16 37  1  0
 17 38  1  0
 17 39  1  0
 18 40  1  0
 19 41  1  0
 19 42  1  0
 20 43  1  0
 20 44  1  0
M  END
>  <Energy>  (1043) 
392.45086221997872

>  <compound_id>  (1043) 
8590

>  <target_id>  (1043) 
1

>  <reference_id>  (1043) 
81

>  <inspiration_ids>  (1043) 
[81, 44]

>  <energy_score>  (1043) 
339.8597079765426

>  <distance_score>  (1043) 
6.316263817602307

>  <path>  (1043) 
/opt/xchem-fragalysis-2/maxwin/BulkDock/SCRATCH/511016/C8590-P81/C8590-P81.minimised.mol

>  <scratch_subdir>  (1043) 
/opt/xchem-fragalysis-2/maxwin/BulkDock/SCRATCH/511016/C8590-P81

>  <fragmenstein_runtime>  (1043) 
12.984409093856812

>  <fragmenstein_outcome>  (1043) 
too moved

>  <fragmenstein_mode>  (1043) 
expansion

>  <fragmenstein_error>  (1043) 


$$$$
C8590-P44
     RDKit          3D

 44 46  0  0  0  0  0  0  0  0999 V2000
    4.8027   -2.4460   18.3517 O   0  0  0  0  0  0  0  0  0  0  0  0
    5.5753   -3.0671   19.1858 C   0  0  0  0  0  0  0  0  0  0  0  0
    6.8355   -4.5899   18.0785 C   0  0  0  0  0  0  0  0  0  0  0  0
    8.0522   -4.0881   16.2019 C   0  0  0  0  0  0  0  0  0  0  0  0
    9.6894   -3.7852   15.3086 C   0  0  0  0  0  0  0  0  0  0  0  0
    9.8790   -2.5957   14.7028 C   0  0  0  0  0  0  0  0  0  0  0  0
    8.8182   -1.9070   15.1353 N   0  0  0  0  0  0  0  0  0  0  0  0
    9.1402   -0.5382   15.5462 C   0  0  0  0  0  0  0  0  0  0  0  0
    9.6329    0.4039   14.4370 C   0  0  0  0  0  0  0  0  0  0  0  0
    9.7744    1.7400   15.1408 C   0  0  0  0  0  0  0  0  0  0  0  0
    8.5923    1.7807   16.0906 C   0  0  0  0  0  0  0  0  0  0  0  0
    8.1853    0.3218   16.3329 C   0  0  0  0  0  0  0  0  0  0  0  0
    7.7026   -2.6921   15.4669 N   0  0  0  0  0  0  0  0  0  0  0  0
    5.6866   -2.5932   20.9831 N   0  0  0  0  0  0  0  0  0  0  0  0
    4.8642   -1.0663   22.0551 C   0  0  0  0  0  0  0  0  0  0  0  0
    4.3937   -1.6142   23.6257 C   0  0  0  0  0  0  0  0  0  0  0  0
    4.2684   -0.4792   24.7881 C   0  0  0  0  0  0  0  0  0  0  0  0
    4.7405    0.9031   24.6146 N   0  0  0  0  0  0  0  0  0  0  0  0
    4.2054    1.6312   23.4219 C   0  0  0  0  0  0  0  0  0  0  0  0
    4.4308    0.7585   21.8117 C   0  0  0  0  0  0  0  0  0  0  0  0
    6.8528   -5.5325   18.6827 H   0  0  0  0  0  0  0  0  0  0  0  0
    6.0446   -5.2408   17.4956 H   0  0  0  0  0  0  0  0  0  0  0  0
   10.6461   -4.2568   15.5871 H   0  0  0  0  0  0  0  0  0  0  0  0
   10.7759   -2.1552   14.2894 H   0  0  0  0  0  0  0  0  0  0  0  0
   10.0042   -0.6807   16.2116 H   0  0  0  0  0  0  0  0  0  0  0  0
    8.9011    0.4719   13.6311 H   0  0  0  0  0  0  0  0  0  0  0  0
   10.5913    0.1011   14.0046 H   0  0  0  0  0  0  0  0  0  0  0  0
    9.7857    2.5843   14.4459 H   0  0  0  0  0  0  0  0  0  0  0  0
   10.7114    1.7648   15.7070 H   0  0  0  0  0  0  0  0  0  0  0  0
    8.8647    2.2797   17.0273 H   0  0  0  0  0  0  0  0  0  0  0  0
    7.7642    2.3511   15.6622 H   0  0  0  0  0  0  0  0  0  0  0  0
    7.1791    0.0921   16.0060 H   0  0  0  0  0  0  0  0  0  0  0  0
    8.2411    0.1502   17.4089 H   0  0  0  0  0  0  0  0  0  0  0  0
    6.3973   -3.1373   21.4094 H   0  0  0  0  0  0  0  0  0  0  0  0
    5.4054   -0.6289   22.8317 H   0  0  0  0  0  0  0  0  0  0  0  0
    5.1588   -2.2981   24.0140 H   0  0  0  0  0  0  0  0  0  0  0  0
    3.4630   -2.1424   23.4719 H   0  0  0  0  0  0  0  0  0  0  0  0
    4.8050   -0.8876   25.6546 H   0  0  0  0  0  0  0  0  0  0  0  0
    3.2410   -0.3906   25.1341 H   0  0  0  0  0  0  0  0  0  0  0  0
    4.5092    1.4435   25.4470 H   0  0  0  0  0  0  0  0  0  0  0  0
    4.5732    2.6689   23.3808 H   0  0  0  0  0  0  0  0  0  0  0  0
    3.1373    1.8539   23.5887 H   0  0  0  0  0  0  0  0  0  0  0  0
    4.9699    1.0143   20.9698 H   0  0  0  0  0  0  0  0  0  0  0  0
    3.4716    1.0417   21.3350 H   0  0  0  0  0  0  0  0  0  0  0  0
  1  2  2  0
  2  3  1  0
  3  4  1  0
  4  5  1  0
  5  6  2  0
  6  7  1  0
  7  8  1  0
  8  9  1  0
  9 10  1  0
 10 11  1  0
 11 12  1  0
  7 13  1  0
  2 14  1  0
 14 15  1  0
 15 16  1  0
 16 17  1  0
 17 18  1  0
 18 19  1  0
 19 20  1  0
 13  4  2  0
 20 15  1  0
 12  8  1  0
  3 21  1  0
  3 22  1  0
  5 23  1  0
  6 24  1  0
  8 25  1  0
  9 26  1  0
  9 27  1  0
 10 28  1  0
 10 29  1  0
 11 30  1  0
 11 31  1  0
 12 32  1  0
 12 33  1  0
 14 34  1  0
 15 35  1  0
 16 36  1  0
 16 37  1  0
 17 38  1  0
 17 39  1  0
 18 40  1  0
 19 41  1  0
 19 42  1  0
 20 43  1  0
 20 44  1  0
M  END
>  <Energy>  (1044) 
922.71197413216305

>  <compound_id>  (1044) 
8590

>  <target_id>  (1044) 
1

>  <reference_id>  (1044) 
44

>  <inspiration_ids>  (1044) 
[81, 44]

>  <energy_score>  (1044) 
870.1208198887293

>  <distance_score>  (1044) 
6.933963786894766

>  <path>  (1044) 
/opt/xchem-fragalysis-2/maxwin/BulkDock/SCRATCH/511016/C8590-P44/C8590-P44.minimised.mol

>  <scratch_subdir>  (1044) 
/opt/xchem-fragalysis-2/maxwin/BulkDock/SCRATCH/511016/C8590-P44

>  <fragmenstein_runtime>  (1044) 
7.9002251625061035

>  <fragmenstein_outcome>  (1044) 
too moved

>  <fragmenstein_mode>  (1044) 
expansion

>  <fragmenstein_error>  (1044) 


$$$$
C8591-P81
     RDKit          3D

 50 52  0  0  0  0  0  0  0  0999 V2000
    0.8865    5.8764   21.4894 C   0  0  0  0  0  0  0  0  0  0  0  0
    2.0520    5.2346   22.3183 C   0  0  0  0  0  0  0  0  0  0  0  0
    1.9819    3.7270   22.0163 C   0  0  0  0  0  0  0  0  0  0  0  0
    3.4064    5.8271   21.6393 C   0  0  0  0  0  0  0  0  0  0  0  0
    3.2624    6.5014   20.6560 O   0  0  0  0  0  0  0  0  0  0  0  0
    4.6036    5.3599   22.2897 N   0  0  0  0  0  0  0  0  0  0  0  0
    5.9322    5.4689   21.9281 C   0  0  0  0  0  0  0  0  0  0  0  0
    6.4931    5.7026   20.6465 C   0  0  0  0  0  0  0  0  0  0  0  0
    7.8339    5.6022   20.6417 N   0  0  0  0  0  0  0  0  0  0  0  0
    8.1387    5.4672   21.9544 N   0  0  0  0  0  0  0  0  0  0  0  0
    9.5280    5.5792   22.3832 C   0  0  0  0  0  0  0  0  0  0  0  0
    9.7882    6.8838   23.1534 C   0  0  0  0  0  0  0  0  0  0  0  0
    9.9359    6.4592   24.6072 C   0  0  0  0  0  0  0  0  0  0  0  0
   10.6498    5.1238   24.5049 C   0  0  0  0  0  0  0  0  0  0  0  0
    9.9948    4.4415   23.3091 C   0  0  0  0  0  0  0  0  0  0  0  0
    7.0291    5.2848   22.7374 C   0  0  0  0  0  0  0  0  0  0  0  0
    1.7819    5.5320   23.8629 C   0  0  0  0  0  0  0  0  0  0  0  0
    0.3493    5.1587   24.3766 C   0  0  0  0  0  0  0  0  0  0  0  0
    0.2997    3.8455   25.1640 C   0  0  0  0  0  0  0  0  0  0  0  0
    1.1407    3.8505   26.3582 N   0  0  0  0  0  0  0  0  0  0  0  0
    2.2451    4.8028   26.2810 C   0  0  0  0  0  0  0  0  0  0  0  0
    2.8046    4.9395   24.8612 C   0  0  0  0  0  0  0  0  0  0  0  0
    0.7908    6.9443   21.7157 H   0  0  0  0  0  0  0  0  0  0  0  0
    1.0539    5.7795   20.4094 H   0  0  0  0  0  0  0  0  0  0  0  0
   -0.0807    5.3981   21.6614 H   0  0  0  0  0  0  0  0  0  0  0  0
    0.9869    3.3242   22.2290 H   0  0  0  0  0  0  0  0  0  0  0  0
    2.1799    3.5323   20.9560 H   0  0  0  0  0  0  0  0  0  0  0  0
    2.7052    3.1495   22.5952 H   0  0  0  0  0  0  0  0  0  0  0  0
    4.3482    4.7483   23.0452 H   0  0  0  0  0  0  0  0  0  0  0  0
    5.9676    5.8781   19.7150 H   0  0  0  0  0  0  0  0  0  0  0  0
   10.1332    5.5795   21.4678 H   0  0  0  0  0  0  0  0  0  0  0  0
   10.7335    7.3230   22.8104 H   0  0  0  0  0  0  0  0  0  0  0  0
    9.0073    7.6404   23.0256 H   0  0  0  0  0  0  0  0  0  0  0  0
   10.5006    7.1879   25.1958 H   0  0  0  0  0  0  0  0  0  0  0  0
    8.9518    6.3323   25.0723 H   0  0  0  0  0  0  0  0  0  0  0  0
   11.7168    5.2815   24.3066 H   0  0  0  0  0  0  0  0  0  0  0  0
   10.5599    4.5312   25.4199 H   0  0  0  0  0  0  0  0  0  0  0  0
    9.1663    3.8126   23.6473 H   0  0  0  0  0  0  0  0  0  0  0  0
   10.7099    3.7818   22.8075 H   0  0  0  0  0  0  0  0  0  0  0  0
    7.1200    5.1212   23.8009 H   0  0  0  0  0  0  0  0  0  0  0  0
    1.8583    6.6256   23.9578 H   0  0  0  0  0  0  0  0  0  0  0  0
    0.0045    5.9683   25.0357 H   0  0  0  0  0  0  0  0  0  0  0  0
   -0.3948    5.1110   23.5823 H   0  0  0  0  0  0  0  0  0  0  0  0
    0.6061    3.0188   24.5146 H   0  0  0  0  0  0  0  0  0  0  0  0
   -0.7321    3.6383   25.4679 H   0  0  0  0  0  0  0  0  0  0  0  0
    1.4970    2.9106   26.5279 H   0  0  0  0  0  0  0  0  0  0  0  0
    1.9103    5.7811   26.6462 H   0  0  0  0  0  0  0  0  0  0  0  0
    3.0409    4.4766   26.9602 H   0  0  0  0  0  0  0  0  0  0  0  0
    3.6923    5.5812   24.8983 H   0  0  0  0  0  0  0  0  0  0  0  0
    3.1310    3.9474   24.5403 H   0  0  0  0  0  0  0  0  0  0  0  0
  1  2  1  0
  2  3  1  0
  2  4  1  0
  4  5  2  0
  4  6  1  0
  6  7  1  0
  7  8  1  0
  8  9  2  0
  9 10  1  0
 10 11  1  0
 11 12  1  0
 12 13  1  0
 13 14  1  0
 14 15  1  0
 10 16  1  0
  2 17  1  0
 17 18  1  0
 18 19  1  0
 19 20  1  0
 20 21  1  0
 21 22  1  0
 16  7  2  0
 22 17  1  0
 15 11  1  0
  1 23  1  0
  1 24  1  0
  1 25  1  0
  3 26  1  0
  3 27  1  0
  3 28  1  0
  6 29  1  0
  8 30  1  0
 11 31  1  0
 12 32  1  0
 12 33  1  0
 13 34  1  0
 13 35  1  0
 14 36  1  0
 14 37  1  0
 15 38  1  0
 15 39  1  0
 16 40  1  0
 17 41  1  0
 18 42  1  0
 18 43  1  0
 19 44  1  0
 19 45  1  0
 20 46  1  0
 21 47  1  0
 21 48  1  0
 22 49  1  0
 22 50  1  0
M  END
>  <Energy>  (1045) 
48.835331680602806

>  <compound_id>  (1045) 
8591

>  <target_id>  (1045) 
1

>  <reference_id>  (1045) 
81

>  <inspiration_ids>  (1045) 
[81, 44]

>  <energy_score>  (1045) 
-50.080470874677815

>  <distance_score>  (1045) 
8.20604245508625

>  <path>  (1045) 
/opt/xchem-fragalysis-2/maxwin/BulkDock/SCRATCH/511016/C8591-P81/C8591-P81.minimised.mol

>  <scratch_subdir>  (1045) 
/opt/xchem-fragalysis-2/maxwin/BulkDock/SCRATCH/511016/C8591-P81

>  <fragmenstein_runtime>  (1045) 
11.867380380630493

>  <fragmenstein_outcome>  (1045) 
too moved

>  <fragmenstein_mode>  (1045) 
expansion

>  <fragmenstein_error>  (1045) 


$$$$
C8591-P44
     RDKit          3D

 50 52  0  0  0  0  0  0  0  0999 V2000
    4.7611    3.6918   23.9672 C   0  0  0  0  0  0  0  0  0  0  0  0
    3.9621    2.4070   23.5781 C   0  0  0  0  0  0  0  0  0  0  0  0
    2.7407    2.9991   22.8316 C   0  0  0  0  0  0  0  0  0  0  0  0
    4.9230    1.1706   22.6124 C   0  0  0  0  0  0  0  0  0  0  0  0
    4.9080   -0.0460   22.8152 O   0  0  0  0  0  0  0  0  0  0  0  0
    5.9676    2.1958   21.4149 N   0  0  0  0  0  0  0  0  0  0  0  0
    7.2948    1.7328   20.2056 C   0  0  0  0  0  0  0  0  0  0  0  0
    7.8275    2.9012   19.4665 C   0  0  0  0  0  0  0  0  0  0  0  0
    8.7625    2.6280   18.5997 N   0  0  0  0  0  0  0  0  0  0  0  0
    8.4327    1.3930   18.2400 N   0  0  0  0  0  0  0  0  0  0  0  0
    9.0281    1.0792   16.9638 C   0  0  0  0  0  0  0  0  0  0  0  0
    8.6593   -0.0759   16.0534 C   0  0  0  0  0  0  0  0  0  0  0  0
    9.3659    0.2323   14.7275 C   0  0  0  0  0  0  0  0  0  0  0  0
    9.8863    1.6560   14.8165 C   0  0  0  0  0  0  0  0  0  0  0  0
    9.0910    2.2567   15.9588 C   0  0  0  0  0  0  0  0  0  0  0  0
    7.7153    0.7441   19.2613 C   0  0  0  0  0  0  0  0  0  0  0  0
    3.5503    1.7528   25.0023 C   0  0  0  0  0  0  0  0  0  0  0  0
    2.4888    2.5259   25.8494 C   0  0  0  0  0  0  0  0  0  0  0  0
    2.1228    1.7933   27.1463 C   0  0  0  0  0  0  0  0  0  0  0  0
    3.3012    1.5315   27.9623 N   0  0  0  0  0  0  0  0  0  0  0  0
    4.2891    0.7507   27.2191 C   0  0  0  0  0  0  0  0  0  0  0  0
    4.7427    1.4711   25.9440 C   0  0  0  0  0  0  0  0  0  0  0  0
    4.8805    4.3621   23.1138 H   0  0  0  0  0  0  0  0  0  0  0  0
    4.2241    4.2959   24.7055 H   0  0  0  0  0  0  0  0  0  0  0  0
    5.7464    3.4878   24.3905 H   0  0  0  0  0  0  0  0  0  0  0  0
    2.4692    2.4071   21.9629 H   0  0  0  0  0  0  0  0  0  0  0  0
    2.9320    4.0040   22.4328 H   0  0  0  0  0  0  0  0  0  0  0  0
    1.8547    3.1293   23.4477 H   0  0  0  0  0  0  0  0  0  0  0  0
    5.8042    3.2295   21.5476 H   0  0  0  0  0  0  0  0  0  0  0  0
    7.5451    3.9397   19.5249 H   0  0  0  0  0  0  0  0  0  0  0  0
   10.0566    0.9151   17.2380 H   0  0  0  0  0  0  0  0  0  0  0  0
    9.0545   -1.0249   16.4006 H   0  0  0  0  0  0  0  0  0  0  0  0
    7.5805   -0.1729   15.9257 H   0  0  0  0  0  0  0  0  0  0  0  0
   10.1960   -0.4614   14.5556 H   0  0  0  0  0  0  0  0  0  0  0  0
    8.6698    0.1310   13.8977 H   0  0  0  0  0  0  0  0  0  0  0  0
   10.9535    1.6429   15.0710 H   0  0  0  0  0  0  0  0  0  0  0  0
    9.7891    2.2113   13.8810 H   0  0  0  0  0  0  0  0  0  0  0  0
    8.0842    2.5543   15.6457 H   0  0  0  0  0  0  0  0  0  0  0  0
    9.6032    3.1452   16.3416 H   0  0  0  0  0  0  0  0  0  0  0  0
    7.3757   -0.2601   19.1300 H   0  0  0  0  0  0  0  0  0  0  0  0
    3.1623    0.7591   24.8002 H   0  0  0  0  0  0  0  0  0  0  0  0
    2.8640    3.5211   26.1122 H   0  0  0  0  0  0  0  0  0  0  0  0
    1.5555    2.6787   25.3050 H   0  0  0  0  0  0  0  0  0  0  0  0
    1.6029    0.8537   26.9290 H   0  0  0  0  0  0  0  0  0  0  0  0
    1.4264    2.4141   27.7209 H   0  0  0  0  0  0  0  0  0  0  0  0
    3.0260    1.0144   28.7964 H   0  0  0  0  0  0  0  0  0  0  0  0
    5.1611    0.5877   27.8621 H   0  0  0  0  0  0  0  0  0  0  0  0
    3.8854   -0.2394   26.9735 H   0  0  0  0  0  0  0  0  0  0  0  0
    5.2437    2.4014   26.2345 H   0  0  0  0  0  0  0  0  0  0  0  0
    5.4858    0.8468   25.4378 H   0  0  0  0  0  0  0  0  0  0  0  0
  1  2  1  0
  2  3  1  0
  2  4  1  0
  4  5  2  0
  4  6  1  0
  6  7  1  0
  7  8  1  0
  8  9  2  0
  9 10  1  0
 10 11  1  0
 11 12  1  0
 12 13  1  0
 13 14  1  0
 14 15  1  0
 10 16  1  0
  2 17  1  0
 17 18  1  0
 18 19  1  0
 19 20  1  0
 20 21  1  0
 21 22  1  0
 16  7  2  0
 22 17  1  0
 15 11  1  0
  1 23  1  0
  1 24  1  0
  1 25  1  0
  3 26  1  0
  3 27  1  0
  3 28  1  0
  6 29  1  0
  8 30  1  0
 11 31  1  0
 12 32  1  0
 12 33  1  0
 13 34  1  0
 13 35  1  0
 14 36  1  0
 14 37  1  0
 15 38  1  0
 15 39  1  0
 16 40  1  0
 17 41  1  0
 18 42  1  0
 18 43  1  0
 19 44  1  0
 19 45  1  0
 20 46  1  0
 21 47  1  0
 21 48  1  0
 22 49  1  0
 22 50  1  0
M  END
>  <Energy>  (1046) 
234.8329354176237

>  <compound_id>  (1046) 
8591

>  <target_id>  (1046) 
1

>  <reference_id>  (1046) 
44

>  <inspiration_ids>  (1046) 
[81, 44]

>  <energy_score>  (1046) 
135.917132862347

>  <distance_score>  (1046) 
6.148338327567452

>  <path>  (1046) 
/opt/xchem-fragalysis-2/maxwin/BulkDock/SCRATCH/511016/C8591-P44/C8591-P44.minimised.mol

>  <scratch_subdir>  (1046) 
/opt/xchem-fragalysis-2/maxwin/BulkDock/SCRATCH/511016/C8591-P44

>  <fragmenstein_runtime>  (1046) 
8.402857303619385

>  <fragmenstein_outcome>  (1046) 
too moved

>  <fragmenstein_mode>  (1046) 
expansion

>  <fragmenstein_error>  (1046) 


$$$$
C8592-P81
     RDKit          3D

 51 53  0  0  0  0  0  0  0  0999 V2000
    8.4655    4.7400   23.8808 C   0  0  0  0  0  0  0  0  0  0  0  0
    8.5071    4.5117   22.3613 C   0  0  0  0  0  0  0  0  0  0  0  0
    9.1518    5.7633   21.7184 C   0  0  0  0  0  0  0  0  0  0  0  0
    7.2776    4.0832   21.5888 N   0  0  0  0  0  0  0  0  0  0  0  0
    7.2841    2.3702   21.2858 C   0  0  0  0  0  0  0  0  0  0  0  0
    7.4401    1.4775   19.5468 C   0  0  0  0  0  0  0  0  0  0  0  0
    7.4296    0.0900   19.0657 C   0  0  0  0  0  0  0  0  0  0  0  0
    8.0828    0.1975   17.5398 C   0  0  0  0  0  0  0  0  0  0  0  0
    8.4352    1.4455   17.1933 N   0  0  0  0  0  0  0  0  0  0  0  0
    7.7623    2.2503   18.1166 N   0  0  0  0  0  0  0  0  0  0  0  0
    7.4730    3.6418   17.7524 C   0  0  0  0  0  0  0  0  0  0  0  0
    8.6728    4.4282   17.2054 C   0  0  0  0  0  0  0  0  0  0  0  0
    8.0545    5.6407   16.5126 C   0  0  0  0  0  0  0  0  0  0  0  0
    6.6014    5.2714   16.2213 C   0  0  0  0  0  0  0  0  0  0  0  0
    6.4543    3.8138   16.6360 C   0  0  0  0  0  0  0  0  0  0  0  0
    6.0043    4.8843   21.8410 C   0  0  0  0  0  0  0  0  0  0  0  0
    5.3300    5.5035   20.6053 C   0  0  0  0  0  0  0  0  0  0  0  0
    3.8363    5.7998   20.9080 C   0  0  0  0  0  0  0  0  0  0  0  0
    3.5331    6.0558   22.3236 N   0  0  0  0  0  0  0  0  0  0  0  0
    4.6151    6.7864   22.9572 C   0  0  0  0  0  0  0  0  0  0  0  0
    5.9319    5.9849   22.9559 C   0  0  0  0  0  0  0  0  0  0  0  0
    7.7402    4.1208   24.3983 H   0  0  0  0  0  0  0  0  0  0  0  0
    9.4448    4.4954   24.3115 H   0  0  0  0  0  0  0  0  0  0  0  0
    8.2748    5.7832   24.1488 H   0  0  0  0  0  0  0  0  0  0  0  0
    9.2569    3.7240   22.2533 H   0  0  0  0  0  0  0  0  0  0  0  0
    9.4725    5.5932   20.6874 H   0  0  0  0  0  0  0  0  0  0  0  0
   10.0503    6.0556   22.2748 H   0  0  0  0  0  0  0  0  0  0  0  0
    8.4800    6.6241   21.7057 H   0  0  0  0  0  0  0  0  0  0  0  0
    6.5458    1.9419   21.9360 H   0  0  0  0  0  0  0  0  0  0  0  0
    8.2000    2.0244   21.7870 H   0  0  0  0  0  0  0  0  0  0  0  0
    7.2855   -0.7858   19.6461 H   0  0  0  0  0  0  0  0  0  0  0  0
    8.2658   -0.5667   16.8033 H   0  0  0  0  0  0  0  0  0  0  0  0
    7.0689    4.1630   18.6201 H   0  0  0  0  0  0  0  0  0  0  0  0
    9.2371    3.8412   16.4707 H   0  0  0  0  0  0  0  0  0  0  0  0
    9.3764    4.7308   17.9863 H   0  0  0  0  0  0  0  0  0  0  0  0
    8.0933    6.5200   17.1654 H   0  0  0  0  0  0  0  0  0  0  0  0
    8.5998    5.8884   15.5960 H   0  0  0  0  0  0  0  0  0  0  0  0
    6.3417    5.4203   15.1686 H   0  0  0  0  0  0  0  0  0  0  0  0
    5.9333    5.9026   16.8190 H   0  0  0  0  0  0  0  0  0  0  0  0
    6.7134    3.1700   15.7978 H   0  0  0  0  0  0  0  0  0  0  0  0
    5.4337    3.5830   16.9533 H   0  0  0  0  0  0  0  0  0  0  0  0
    5.2644    4.2259   22.2382 H   0  0  0  0  0  0  0  0  0  0  0  0
    5.3777    4.8540   19.7294 H   0  0  0  0  0  0  0  0  0  0  0  0
    5.8496    6.4312   20.3325 H   0  0  0  0  0  0  0  0  0  0  0  0
    3.2185    4.9570   20.5797 H   0  0  0  0  0  0  0  0  0  0  0  0
    3.5271    6.6613   20.3034 H   0  0  0  0  0  0  0  0  0  0  0  0
    2.6552    6.5688   22.3934 H   0  0  0  0  0  0  0  0  0  0  0  0
    4.7640    7.7481   22.4495 H   0  0  0  0  0  0  0  0  0  0  0  0
    4.3429    7.0258   23.9914 H   0  0  0  0  0  0  0  0  0  0  0  0
    6.7394    6.7119   22.8521 H   0  0  0  0  0  0  0  0  0  0  0  0
    6.0171    5.5135   23.9397 H   0  0  0  0  0  0  0  0  0  0  0  0
  1  2  1  0
  2  3  1  0
  2  4  1  0
  4  5  1  0
  5  6  1  0
  6  7  2  0
  7  8  1  0
  8  9  2  0
  9 10  1  0
 10 11  1  0
 11 12  1  0
 12 13  1  0
 13 14  1  0
 14 15  1  0
  4 16  1  0
 16 17  1  0
 17 18  1  0
 18 19  1  0
 19 20  1  0
 20 21  1  0
 10  6  1  0
 15 11  1  0
 21 16  1  0
  1 22  1  0
  1 23  1  0
  1 24  1  0
  2 25  1  0
  3 26  1  0
  3 27  1  0
  3 28  1  0
  5 29  1  0
  5 30  1  0
  7 31  1  0
  8 32  1  0
 11 33  1  0
 12 34  1  0
 12 35  1  0
 13 36  1  0
 13 37  1  0
 14 38  1  0
 14 39  1  0
 15 40  1  0
 15 41  1  0
 16 42  1  0
 17 43  1  0
 17 44  1  0
 18 45  1  0
 18 46  1  0
 19 47  1  0
 20 48  1  0
 20 49  1  0
 21 50  1  0
 21 51  1  0
M  END
>  <Energy>  (1047) 
173.86611958172023

>  <compound_id>  (1047) 
8592

>  <target_id>  (1047) 
1

>  <reference_id>  (1047) 
81

>  <inspiration_ids>  (1047) 
[81, 44]

>  <energy_score>  (1047) 
96.82293153580383

>  <distance_score>  (1047) 
8.293535628018166

>  <path>  (1047) 
/opt/xchem-fragalysis-2/maxwin/BulkDock/SCRATCH/511016/C8592-P81/C8592-P81.minimised.mol

>  <scratch_subdir>  (1047) 
/opt/xchem-fragalysis-2/maxwin/BulkDock/SCRATCH/511016/C8592-P81

>  <fragmenstein_runtime>  (1047) 
7.764962434768677

>  <fragmenstein_outcome>  (1047) 
too moved

>  <fragmenstein_mode>  (1047) 
expansion

>  <fragmenstein_error>  (1047) 


$$$$
C8592-P44
     RDKit          3D

 51 53  0  0  0  0  0  0  0  0999 V2000
    2.5401    3.7746   22.6738 C   0  0  0  0  0  0  0  0  0  0  0  0
    4.0250    3.4874   22.9687 C   0  0  0  0  0  0  0  0  0  0  0  0
    4.4936    4.3647   24.1551 C   0  0  0  0  0  0  0  0  0  0  0  0
    4.4397    1.9194   22.8666 N   0  0  0  0  0  0  0  0  0  0  0  0
    4.7443    0.8630   21.2535 C   0  0  0  0  0  0  0  0  0  0  0  0
    6.5103    0.5457   20.0758 C   0  0  0  0  0  0  0  0  0  0  0  0
    6.9698    0.0025   18.7805 C   0  0  0  0  0  0  0  0  0  0  0  0
    8.1869    0.4560   18.2906 C   0  0  0  0  0  0  0  0  0  0  0  0
    8.7117    1.1490   19.2501 N   0  0  0  0  0  0  0  0  0  0  0  0
    7.6279    1.7915   19.6703 N   0  0  0  0  0  0  0  0  0  0  0  0
    7.6168    3.1981   19.1157 C   0  0  0  0  0  0  0  0  0  0  0  0
    7.3622    3.4508   17.5973 C   0  0  0  0  0  0  0  0  0  0  0  0
    8.0428    4.7715   17.2798 C   0  0  0  0  0  0  0  0  0  0  0  0
    9.3709    4.5846   17.9614 C   0  0  0  0  0  0  0  0  0  0  0  0
    8.9994    3.9532   19.3020 C   0  0  0  0  0  0  0  0  0  0  0  0
    4.3704    1.2814   24.3877 C   0  0  0  0  0  0  0  0  0  0  0  0
    3.1758    1.7866   25.2292 C   0  0  0  0  0  0  0  0  0  0  0  0
    2.9059    0.9027   26.4607 C   0  0  0  0  0  0  0  0  0  0  0  0
    4.0964    0.6304   27.2583 N   0  0  0  0  0  0  0  0  0  0  0  0
    5.1805    1.5336   26.9205 C   0  0  0  0  0  0  0  0  0  0  0  0
    5.5611    1.4502   25.4285 C   0  0  0  0  0  0  0  0  0  0  0  0
    2.1566    3.1820   21.8401 H   0  0  0  0  0  0  0  0  0  0  0  0
    2.4211    4.8267   22.3868 H   0  0  0  0  0  0  0  0  0  0  0  0
    1.8921    3.6171   23.5370 H   0  0  0  0  0  0  0  0  0  0  0  0
    4.5885    4.0544   22.2174 H   0  0  0  0  0  0  0  0  0  0  0  0
    3.7778    4.4482   24.9713 H   0  0  0  0  0  0  0  0  0  0  0  0
    4.6123    5.4002   23.8034 H   0  0  0  0  0  0  0  0  0  0  0  0
    5.4751    4.0804   24.5288 H   0  0  0  0  0  0  0  0  0  0  0  0
    4.6344   -0.1716   21.7031 H   0  0  0  0  0  0  0  0  0  0  0  0
    3.7191    1.0425   21.0140 H   0  0  0  0  0  0  0  0  0  0  0  0
    6.3670   -0.5418   18.0685 H   0  0  0  0  0  0  0  0  0  0  0  0
    8.6786    0.3088   17.3390 H   0  0  0  0  0  0  0  0  0  0  0  0
    6.8784    3.7785   19.6469 H   0  0  0  0  0  0  0  0  0  0  0  0
    7.8119    2.6792   16.9654 H   0  0  0  0  0  0  0  0  0  0  0  0
    6.3071    3.5525   17.3406 H   0  0  0  0  0  0  0  0  0  0  0  0
    8.1438    4.9384   16.2036 H   0  0  0  0  0  0  0  0  0  0  0  0
    7.4889    5.6116   17.7143 H   0  0  0  0  0  0  0  0  0  0  0  0
    9.9220    5.5220   18.0794 H   0  0  0  0  0  0  0  0  0  0  0  0
    9.9777    3.9040   17.3597 H   0  0  0  0  0  0  0  0  0  0  0  0
    8.8962    4.7919   19.9966 H   0  0  0  0  0  0  0  0  0  0  0  0
    9.8049    3.3310   19.6981 H   0  0  0  0  0  0  0  0  0  0  0  0
    4.3344    0.1933   24.2920 H   0  0  0  0  0  0  0  0  0  0  0  0
    3.3710    2.7686   25.6515 H   0  0  0  0  0  0  0  0  0  0  0  0
    2.3092    1.9680   24.6141 H   0  0  0  0  0  0  0  0  0  0  0  0
    2.5068   -0.0699   26.1791 H   0  0  0  0  0  0  0  0  0  0  0  0
    2.1506    1.3942   27.0853 H   0  0  0  0  0  0  0  0  0  0  0  0
    3.8739    0.6930   28.2506 H   0  0  0  0  0  0  0  0  0  0  0  0
    4.9242    2.5642   27.1969 H   0  0  0  0  0  0  0  0  0  0  0  0
    6.0612    1.2754   27.5202 H   0  0  0  0  0  0  0  0  0  0  0  0
    6.2088    0.5720   25.3321 H   0  0  0  0  0  0  0  0  0  0  0  0
    6.1720    2.3321   25.2315 H   0  0  0  0  0  0  0  0  0  0  0  0
  1  2  1  0
  2  3  1  0
  2  4  1  0
  4  5  1  0
  5  6  1  0
  6  7  2  0
  7  8  1  0
  8  9  2  0
  9 10  1  0
 10 11  1  0
 11 12  1  0
 12 13  1  0
 13 14  1  0
 14 15  1  0
  4 16  1  0
 16 17  1  0
 17 18  1  0
 18 19  1  0
 19 20  1  0
 20 21  1  0
 10  6  1  0
 15 11  1  0
 21 16  1  0
  1 22  1  0
  1 23  1  0
  1 24  1  0
  2 25  1  0
  3 26  1  0
  3 27  1  0
  3 28  1  0
  5 29  1  0
  5 30  1  0
  7 31  1  0
  8 32  1  0
 11 33  1  0
 12 34  1  0
 12 35  1  0
 13 36  1  0
 13 37  1  0
 14 38  1  0
 14 39  1  0
 15 40  1  0
 15 41  1  0
 16 42  1  0
 17 43  1  0
 17 44  1  0
 18 45  1  0
 18 46  1  0
 19 47  1  0
 20 48  1  0
 20 49  1  0
 21 50  1  0
 21 51  1  0
M  END
>  <Energy>  (1048) 
397.07312463527427

>  <compound_id>  (1048) 
8592

>  <target_id>  (1048) 
1

>  <reference_id>  (1048) 
44

>  <inspiration_ids>  (1048) 
[81, 44]

>  <energy_score>  (1048) 
320.02993658936

>  <distance_score>  (1048) 
6.409774027320144

>  <path>  (1048) 
/opt/xchem-fragalysis-2/maxwin/BulkDock/SCRATCH/511016/C8592-P44/C8592-P44.minimised.mol

>  <scratch_subdir>  (1048) 
/opt/xchem-fragalysis-2/maxwin/BulkDock/SCRATCH/511016/C8592-P44

>  <fragmenstein_runtime>  (1048) 
6.404102325439453

>  <fragmenstein_outcome>  (1048) 
too moved

>  <fragmenstein_mode>  (1048) 
expansion

>  <fragmenstein_error>  (1048) 


$$$$
C8594-P81
     RDKit          3D

 44 46  0  0  0  0  0  0  0  0999 V2000
    4.0062    6.4019   20.6125 O   0  0  0  0  0  0  0  0  0  0  0  0
    4.3649    5.8244   21.5973 C   0  0  0  0  0  0  0  0  0  0  0  0
    3.6137    5.3140   22.7105 N   0  0  0  0  0  0  0  0  0  0  0  0
    2.1883    5.2538   22.9429 C   0  0  0  0  0  0  0  0  0  0  0  0
    1.6748    4.7949   24.3181 C   0  0  0  0  0  0  0  0  0  0  0  0
    1.8101    3.2798   24.5474 C   0  0  0  0  0  0  0  0  0  0  0  0
    2.0344    2.9056   26.0156 C   0  0  0  0  0  0  0  0  0  0  0  0
    1.1939    3.7160   26.8842 N   0  0  0  0  0  0  0  0  0  0  0  0
    1.5417    5.1401   26.8131 C   0  0  0  0  0  0  0  0  0  0  0  0
    2.2370    5.5699   25.5084 C   0  0  0  0  0  0  0  0  0  0  0  0
    5.8401    5.6160   21.7673 C   0  0  0  0  0  0  0  0  0  0  0  0
    6.8530    5.9821   20.8315 C   0  0  0  0  0  0  0  0  0  0  0  0
    8.0492    5.7779   21.4765 C   0  0  0  0  0  0  0  0  0  0  0  0
    7.7349    5.2534   22.6963 N   0  0  0  0  0  0  0  0  0  0  0  0
    8.6155    5.0029   23.8297 C   0  0  0  0  0  0  0  0  0  0  0  0
    9.8409    4.1460   23.5221 C   0  0  0  0  0  0  0  0  0  0  0  0
   10.9737    5.1209   23.2085 C   0  0  0  0  0  0  0  0  0  0  0  0
   10.5274    6.4929   23.7087 C   0  0  0  0  0  0  0  0  0  0  0  0
    9.2079    6.2738   24.4384 C   0  0  0  0  0  0  0  0  0  0  0  0
    6.4020    5.0772   22.8706 N   0  0  0  0  0  0  0  0  0  0  0  0
    4.2410    4.8062   23.3269 H   0  0  0  0  0  0  0  0  0  0  0  0
    1.8084    6.2616   22.7351 H   0  0  0  0  0  0  0  0  0  0  0  0
    1.7720    4.6101   22.1586 H   0  0  0  0  0  0  0  0  0  0  0  0
    0.5933    5.0010   24.3000 H   0  0  0  0  0  0  0  0  0  0  0  0
    2.6220    2.8585   23.9448 H   0  0  0  0  0  0  0  0  0  0  0  0
    0.8825    2.8116   24.1992 H   0  0  0  0  0  0  0  0  0  0  0  0
    1.7932    1.8493   26.1631 H   0  0  0  0  0  0  0  0  0  0  0  0
    3.0901    3.0233   26.2884 H   0  0  0  0  0  0  0  0  0  0  0  0
    1.2664    3.3997   27.8499 H   0  0  0  0  0  0  0  0  0  0  0  0
    2.1922    5.4024   27.6560 H   0  0  0  0  0  0  0  0  0  0  0  0
    0.6174    5.7152   26.9389 H   0  0  0  0  0  0  0  0  0  0  0  0
    3.3166    5.3908   25.5922 H   0  0  0  0  0  0  0  0  0  0  0  0
    2.1039    6.6483   25.3640 H   0  0  0  0  0  0  0  0  0  0  0  0
    6.6935    6.4267   19.8579 H   0  0  0  0  0  0  0  0  0  0  0  0
    9.0662    5.9982   21.1833 H   0  0  0  0  0  0  0  0  0  0  0  0
    7.9982    4.4959   24.5817 H   0  0  0  0  0  0  0  0  0  0  0  0
   10.1125    3.5732   24.4180 H   0  0  0  0  0  0  0  0  0  0  0  0
    9.6769    3.4246   22.7183 H   0  0  0  0  0  0  0  0  0  0  0  0
   11.9023    4.8032   23.6948 H   0  0  0  0  0  0  0  0  0  0  0  0
   11.1733    5.1581   22.1324 H   0  0  0  0  0  0  0  0  0  0  0  0
   10.3874    7.1737   22.8616 H   0  0  0  0  0  0  0  0  0  0  0  0
   11.2762    6.9486   24.3646 H   0  0  0  0  0  0  0  0  0  0  0  0
    8.5484    7.1444   24.3635 H   0  0  0  0  0  0  0  0  0  0  0  0
    9.4151    6.1038   25.5025 H   0  0  0  0  0  0  0  0  0  0  0  0
  1  2  2  0
  2  3  1  0
  3  4  1  0
  4  5  1  0
  5  6  1  0
  6  7  1  0
  7  8  1  0
  8  9  1  0
  9 10  1  0
  2 11  1  0
 11 12  1  0
 12 13  2  0
 13 14  1  0
 14 15  1  0
 15 16  1  0
 16 17  1  0
 17 18  1  0
 18 19  1  0
 14 20  1  0
 10  5  1  0
 20 11  2  0
 19 15  1  0
  3 21  1  0
  4 22  1  0
  4 23  1  0
  5 24  1  0
  6 25  1  0
  6 26  1  0
  7 27  1  0
  7 28  1  0
  8 29  1  0
  9 30  1  0
  9 31  1  0
 10 32  1  0
 10 33  1  0
 12 34  1  0
 13 35  1  0
 15 36  1  0
 16 37  1  0
 16 38  1  0
 17 39  1  0
 17 40  1  0
 18 41  1  0
 18 42  1  0
 19 43  1  0
 19 44  1  0
M  END
>  <Energy>  (1049) 
38.807691392273711

>  <compound_id>  (1049) 
8594

>  <target_id>  (1049) 
1

>  <reference_id>  (1049) 
81

>  <inspiration_ids>  (1049) 
[81, 44]

>  <energy_score>  (1049) 
-26.3230041303797

>  <distance_score>  (1049) 
8.40491146768166

>  <path>  (1049) 
/opt/xchem-fragalysis-2/maxwin/BulkDock/SCRATCH/511016/C8594-P81/C8594-P81.minimised.mol

>  <scratch_subdir>  (1049) 
/opt/xchem-fragalysis-2/maxwin/BulkDock/SCRATCH/511016/C8594-P81

>  <fragmenstein_runtime>  (1049) 
13.135266780853271

>  <fragmenstein_outcome>  (1049) 
too moved

>  <fragmenstein_mode>  (1049) 
expansion

>  <fragmenstein_error>  (1049) 


$$$$
C8594-P44
     RDKit          3D

 44 46  0  0  0  0  0  0  0  0999 V2000
    9.3474    1.3642   26.6636 O   0  0  0  0  0  0  0  0  0  0  0  0
    8.9659    2.0879   25.8107 C   0  0  0  0  0  0  0  0  0  0  0  0
    7.5737    2.8764   25.6647 N   0  0  0  0  0  0  0  0  0  0  0  0
    6.3937    2.9930   26.6334 C   0  0  0  0  0  0  0  0  0  0  0  0
    4.8115    2.5331   26.3594 C   0  0  0  0  0  0  0  0  0  0  0  0
    3.8647    3.5315   25.6529 C   0  0  0  0  0  0  0  0  0  0  0  0
    2.3866    3.0572   25.5615 C   0  0  0  0  0  0  0  0  0  0  0  0
    1.8631    2.3248   26.7153 N   0  0  0  0  0  0  0  0  0  0  0  0
    2.6382    2.6153   27.9046 C   0  0  0  0  0  0  0  0  0  0  0  0
    4.1077    2.1867   27.7284 C   0  0  0  0  0  0  0  0  0  0  0  0
   10.0117    2.1926   24.5755 C   0  0  0  0  0  0  0  0  0  0  0  0
   10.7440    1.0868   23.9912 C   0  0  0  0  0  0  0  0  0  0  0  0
   11.5046    1.5768   22.9502 C   0  0  0  0  0  0  0  0  0  0  0  0
   11.1845    2.8865   22.8551 N   0  0  0  0  0  0  0  0  0  0  0  0
   11.7777    3.8340   21.9219 C   0  0  0  0  0  0  0  0  0  0  0  0
   10.9448    5.0880   21.6473 C   0  0  0  0  0  0  0  0  0  0  0  0
   11.4075    6.1336   22.6633 C   0  0  0  0  0  0  0  0  0  0  0  0
   12.6997    5.6027   23.2795 C   0  0  0  0  0  0  0  0  0  0  0  0
   13.1025    4.4070   22.4263 C   0  0  0  0  0  0  0  0  0  0  0  0
   10.3978    3.3066   23.8901 N   0  0  0  0  0  0  0  0  0  0  0  0
    7.6061    3.4746   24.8517 H   0  0  0  0  0  0  0  0  0  0  0  0
    6.7306    2.4179   27.5041 H   0  0  0  0  0  0  0  0  0  0  0  0
    6.3741    4.0481   26.9286 H   0  0  0  0  0  0  0  0  0  0  0  0
    4.8620    1.6165   25.7573 H   0  0  0  0  0  0  0  0  0  0  0  0
    3.8979    4.4867   26.1933 H   0  0  0  0  0  0  0  0  0  0  0  0
    4.2413    3.7358   24.6435 H   0  0  0  0  0  0  0  0  0  0  0  0
    2.2898    2.4344   24.6692 H   0  0  0  0  0  0  0  0  0  0  0  0
    1.7624    3.9416   25.3836 H   0  0  0  0  0  0  0  0  0  0  0  0
    0.8842    2.5700   26.8638 H   0  0  0  0  0  0  0  0  0  0  0  0
    2.2132    2.0766   28.7589 H   0  0  0  0  0  0  0  0  0  0  0  0
    2.5813    3.6832   28.1498 H   0  0  0  0  0  0  0  0  0  0  0  0
    4.6782    2.6302   28.5540 H   0  0  0  0  0  0  0  0  0  0  0  0
    4.1798    1.0993   27.8645 H   0  0  0  0  0  0  0  0  0  0  0  0
   10.7571    0.0826   24.3910 H   0  0  0  0  0  0  0  0  0  0  0  0
   12.2938    1.1221   22.3787 H   0  0  0  0  0  0  0  0  0  0  0  0
   11.9273    3.2748   20.9913 H   0  0  0  0  0  0  0  0  0  0  0  0
   11.1700    5.4562   20.6383 H   0  0  0  0  0  0  0  0  0  0  0  0
    9.8661    4.9215   21.6963 H   0  0  0  0  0  0  0  0  0  0  0  0
   10.6512    6.2906   23.4402 H   0  0  0  0  0  0  0  0  0  0  0  0
   11.5710    7.0986   22.1712 H   0  0  0  0  0  0  0  0  0  0  0  0
   12.5162    5.2858   24.3128 H   0  0  0  0  0  0  0  0  0  0  0  0
   13.4841    6.3654   23.3074 H   0  0  0  0  0  0  0  0  0  0  0  0
   13.7082    3.6901   22.9896 H   0  0  0  0  0  0  0  0  0  0  0  0
   13.6995    4.7556   21.5743 H   0  0  0  0  0  0  0  0  0  0  0  0
  1  2  2  0
  2  3  1  0
  3  4  1  0
  4  5  1  0
  5  6  1  0
  6  7  1  0
  7  8  1  0
  8  9  1  0
  9 10  1  0
  2 11  1  0
 11 12  1  0
 12 13  2  0
 13 14  1  0
 14 15  1  0
 15 16  1  0
 16 17  1  0
 17 18  1  0
 18 19  1  0
 14 20  1  0
 10  5  1  0
 20 11  2  0
 19 15  1  0
  3 21  1  0
  4 22  1  0
  4 23  1  0
  5 24  1  0
  6 25  1  0
  6 26  1  0
  7 27  1  0
  7 28  1  0
  8 29  1  0
  9 30  1  0
  9 31  1  0
 10 32  1  0
 10 33  1  0
 12 34  1  0
 13 35  1  0
 15 36  1  0
 16 37  1  0
 16 38  1  0
 17 39  1  0
 17 40  1  0
 18 41  1  0
 18 42  1  0
 19 43  1  0
 19 44  1  0
M  END
>  <Energy>  (1050) 
92.17017027578639

>  <compound_id>  (1050) 
8594

>  <target_id>  (1050) 
1

>  <reference_id>  (1050) 
44

>  <inspiration_ids>  (1050) 
[81, 44]

>  <energy_score>  (1050) 
19.957856664053367

>  <distance_score>  (1050) 
7.857858557288457

>  <path>  (1050) 
/opt/xchem-fragalysis-2/maxwin/BulkDock/SCRATCH/511016/C8594-P44/C8594-P44.minimised.mol

>  <scratch_subdir>  (1050) 
/opt/xchem-fragalysis-2/maxwin/BulkDock/SCRATCH/511016/C8594-P44

>  <fragmenstein_runtime>  (1050) 
7.348729848861694

>  <fragmenstein_outcome>  (1050) 
too moved

>  <fragmenstein_mode>  (1050) 
expansion

>  <fragmenstein_error>  (1050) 


$$$$
C8595-P81
     RDKit          3D

 45 47  0  0  0  0  0  0  0  0999 V2000
    6.1097   -1.0015   18.2585 C   0  0  0  0  0  0  0  0  0  0  0  0
    6.6771    0.0686   19.7815 C   0  0  0  0  0  0  0  0  0  0  0  0
    5.5310    0.1225   21.5034 N   0  0  0  0  0  0  0  0  0  0  0  0
    3.9864    1.1755   22.0296 C   0  0  0  0  0  0  0  0  0  0  0  0
    2.6604    2.2936   21.3719 C   0  0  0  0  0  0  0  0  0  0  0  0
    2.2936    3.6298   22.0720 C   0  0  0  0  0  0  0  0  0  0  0  0
    1.5465    3.4393   23.3125 N   0  0  0  0  0  0  0  0  0  0  0  0
    2.2287    2.4978   24.1910 C   0  0  0  0  0  0  0  0  0  0  0  0
    3.4573    1.7379   23.6041 C   0  0  0  0  0  0  0  0  0  0  0  0
    7.5601    1.4604   18.6703 C   0  0  0  0  0  0  0  0  0  0  0  0
    8.3664    0.9599   17.3091 C   0  0  0  0  0  0  0  0  0  0  0  0
    8.9017    1.8966   16.5419 N   0  0  0  0  0  0  0  0  0  0  0  0
    8.2961    3.0001   16.9850 N   0  0  0  0  0  0  0  0  0  0  0  0
    8.4952    4.2428   16.2541 C   0  0  0  0  0  0  0  0  0  0  0  0
    7.1964    4.9111   15.7659 C   0  0  0  0  0  0  0  0  0  0  0  0
    7.1099    6.2286   16.5259 C   0  0  0  0  0  0  0  0  0  0  0  0
    8.5641    6.6231   16.7156 C   0  0  0  0  0  0  0  0  0  0  0  0
    9.2391    5.3075   17.0754 C   0  0  0  0  0  0  0  0  0  0  0  0
    7.4201    2.7979   18.0358 C   0  0  0  0  0  0  0  0  0  0  0  0
    5.8507   -2.0109   18.4736 H   0  0  0  0  0  0  0  0  0  0  0  0
    5.0406   -1.0677   18.0108 H   0  0  0  0  0  0  0  0  0  0  0  0
    6.5513   -0.8132   17.2629 H   0  0  0  0  0  0  0  0  0  0  0  0
    7.5462   -0.4655   20.1718 H   0  0  0  0  0  0  0  0  0  0  0  0
    5.3810   -0.8479   21.7716 H   0  0  0  0  0  0  0  0  0  0  0  0
    3.3937    0.4635   21.6169 H   0  0  0  0  0  0  0  0  0  0  0  0
    2.6787    2.5357   20.3226 H   0  0  0  0  0  0  0  0  0  0  0  0
    1.7753    1.7192   21.4459 H   0  0  0  0  0  0  0  0  0  0  0  0
    3.1656    4.2739   22.2326 H   0  0  0  0  0  0  0  0  0  0  0  0
    1.6428    4.1990   21.3959 H   0  0  0  0  0  0  0  0  0  0  0  0
    0.6102    3.1159   23.0846 H   0  0  0  0  0  0  0  0  0  0  0  0
    2.6146    3.1083   25.0232 H   0  0  0  0  0  0  0  0  0  0  0  0
    1.5107    1.8727   24.7049 H   0  0  0  0  0  0  0  0  0  0  0  0
    3.8775    1.1441   24.4236 H   0  0  0  0  0  0  0  0  0  0  0  0
    3.8579    2.7209   23.4406 H   0  0  0  0  0  0  0  0  0  0  0  0
    8.4917   -0.0665   17.0232 H   0  0  0  0  0  0  0  0  0  0  0  0
    9.0968    3.9902   15.3702 H   0  0  0  0  0  0  0  0  0  0  0  0
    7.2860    5.1249   14.6933 H   0  0  0  0  0  0  0  0  0  0  0  0
    6.2968    4.3025   15.8995 H   0  0  0  0  0  0  0  0  0  0  0  0
    6.5408    6.9855   15.9787 H   0  0  0  0  0  0  0  0  0  0  0  0
    6.6282    6.0748   17.4986 H   0  0  0  0  0  0  0  0  0  0  0  0
    8.6927    7.3817   17.4929 H   0  0  0  0  0  0  0  0  0  0  0  0
    8.9769    7.0171   15.7793 H   0  0  0  0  0  0  0  0  0  0  0  0
    9.1460    5.1329   18.1522 H   0  0  0  0  0  0  0  0  0  0  0  0
   10.3088    5.3257   16.8419 H   0  0  0  0  0  0  0  0  0  0  0  0
    6.7734    3.6373   18.2588 H   0  0  0  0  0  0  0  0  0  0  0  0
  1  2  1  0
  2  3  1  0
  3  4  1  0
  4  5  1  0
  5  6  1  0
  6  7  1  0
  7  8  1  0
  8  9  1  0
  2 10  1  0
 10 11  1  0
 11 12  2  0
 12 13  1  0
 13 14  1  0
 14 15  1  0
 15 16  1  0
 16 17  1  0
 17 18  1  0
 13 19  1  0
  9  4  1  0
 19 10  2  0
 18 14  1  0
  1 20  1  0
  1 21  1  0
  1 22  1  0
  2 23  1  0
  3 24  1  0
  4 25  1  0
  5 26  1  0
  5 27  1  0
  6 28  1  0
  6 29  1  0
  7 30  1  0
  8 31  1  0
  8 32  1  0
  9 33  1  0
  9 34  1  0
 11 35  1  0
 14 36  1  0
 15 37  1  0
 15 38  1  0
 16 39  1  0
 16 40  1  0
 17 41  1  0
 17 42  1  0
 18 43  1  0
 18 44  1  0
 19 45  1  0
M  END
>  <Energy>  (1051) 
515.64430177067311

>  <compound_id>  (1051) 
8595

>  <target_id>  (1051) 
1

>  <reference_id>  (1051) 
81

>  <inspiration_ids>  (1051) 
[81, 44]

>  <energy_score>  (1051) 
469.45657148382946

>  <distance_score>  (1051) 
6.771902254937332

>  <path>  (1051) 
/opt/xchem-fragalysis-2/maxwin/BulkDock/SCRATCH/511016/C8595-P81/C8595-P81.minimised.mol

>  <scratch_subdir>  (1051) 
/opt/xchem-fragalysis-2/maxwin/BulkDock/SCRATCH/511016/C8595-P81

>  <fragmenstein_runtime>  (1051) 
9.025309562683105

>  <fragmenstein_outcome>  (1051) 
too moved

>  <fragmenstein_mode>  (1051) 
expansion

>  <fragmenstein_error>  (1051) 


$$$$
C8595-P44
     RDKit          3D

 45 47  0  0  0  0  0  0  0  0999 V2000
    7.0134   -0.7854   20.0326 C   0  0  0  0  0  0  0  0  0  0  0  0
    6.3826    0.4992   20.1219 C   0  0  0  0  0  0  0  0  0  0  0  0
    4.7590    0.9993   21.3050 N   0  0  0  0  0  0  0  0  0  0  0  0
    4.2996    1.7419   23.0066 C   0  0  0  0  0  0  0  0  0  0  0  0
    3.0312    2.7581   23.0076 C   0  0  0  0  0  0  0  0  0  0  0  0
    2.3958    3.1070   24.3508 C   0  0  0  0  0  0  0  0  0  0  0  0
    3.3113    2.9542   25.4701 N   0  0  0  0  0  0  0  0  0  0  0  0
    3.7068    1.5652   25.6300 C   0  0  0  0  0  0  0  0  0  0  0  0
    4.4958    0.9841   24.4490 C   0  0  0  0  0  0  0  0  0  0  0  0
    7.6332    1.5941   19.3102 C   0  0  0  0  0  0  0  0  0  0  0  0
    7.7519    3.0056   19.1584 C   0  0  0  0  0  0  0  0  0  0  0  0
    8.6039    3.4248   18.2220 N   0  0  0  0  0  0  0  0  0  0  0  0
    8.8409    2.3187   17.5193 N   0  0  0  0  0  0  0  0  0  0  0  0
    9.0773    2.4413   16.0900 C   0  0  0  0  0  0  0  0  0  0  0  0
    9.8977    3.6671   15.6597 C   0  0  0  0  0  0  0  0  0  0  0  0
   10.4943    3.2694   14.3204 C   0  0  0  0  0  0  0  0  0  0  0  0
   10.8584    1.8094   14.5182 C   0  0  0  0  0  0  0  0  0  0  0  0
    9.7545    1.2401   15.4048 C   0  0  0  0  0  0  0  0  0  0  0  0
    8.3832    1.2015   18.1780 C   0  0  0  0  0  0  0  0  0  0  0  0
    7.4554   -1.0811   20.8636 H   0  0  0  0  0  0  0  0  0  0  0  0
    6.3522   -1.5813   20.4162 H   0  0  0  0  0  0  0  0  0  0  0  0
    7.7717   -0.7902   19.2796 H   0  0  0  0  0  0  0  0  0  0  0  0
    6.0300    0.5084   19.0623 H   0  0  0  0  0  0  0  0  0  0  0  0
    3.8806    1.0786   20.7990 H   0  0  0  0  0  0  0  0  0  0  0  0
    4.8899    2.6803   23.1379 H   0  0  0  0  0  0  0  0  0  0  0  0
    3.4081    3.7426   22.6698 H   0  0  0  0  0  0  0  0  0  0  0  0
    2.3291    2.5431   22.2113 H   0  0  0  0  0  0  0  0  0  0  0  0
    2.0841    4.1590   24.3154 H   0  0  0  0  0  0  0  0  0  0  0  0
    1.4694    2.5635   24.5242 H   0  0  0  0  0  0  0  0  0  0  0  0
    2.8569    3.2786   26.3236 H   0  0  0  0  0  0  0  0  0  0  0  0
    4.3419    1.5011   26.5231 H   0  0  0  0  0  0  0  0  0  0  0  0
    2.8468    0.9365   25.8685 H   0  0  0  0  0  0  0  0  0  0  0  0
    4.3205   -0.0964   24.4095 H   0  0  0  0  0  0  0  0  0  0  0  0
    5.5342    1.0257   24.7878 H   0  0  0  0  0  0  0  0  0  0  0  0
    7.1587    3.7868   19.5917 H   0  0  0  0  0  0  0  0  0  0  0  0
    8.0717    2.5472   15.6602 H   0  0  0  0  0  0  0  0  0  0  0  0
    9.2761    4.5646   15.5734 H   0  0  0  0  0  0  0  0  0  0  0  0
   10.6986    3.8928   16.3688 H   0  0  0  0  0  0  0  0  0  0  0  0
    9.7504    3.3747   13.5237 H   0  0  0  0  0  0  0  0  0  0  0  0
   11.3619    3.8804   14.0552 H   0  0  0  0  0  0  0  0  0  0  0  0
   11.8230    1.7323   15.0317 H   0  0  0  0  0  0  0  0  0  0  0  0
   10.9438    1.2715   13.5691 H   0  0  0  0  0  0  0  0  0  0  0  0
   10.1624    0.5034   16.0980 H   0  0  0  0  0  0  0  0  0  0  0  0
    9.0199    0.7102   14.7870 H   0  0  0  0  0  0  0  0  0  0  0  0
    8.3799    0.2778   17.6367 H   0  0  0  0  0  0  0  0  0  0  0  0
  1  2  1  0
  2  3  1  0
  3  4  1  0
  4  5  1  0
  5  6  1  0
  6  7  1  0
  7  8  1  0
  8  9  1  0
  2 10  1  0
 10 11  1  0
 11 12  2  0
 12 13  1  0
 13 14  1  0
 14 15  1  0
 15 16  1  0
 16 17  1  0
 17 18  1  0
 13 19  1  0
  9  4  1  0
 19 10  2  0
 18 14  1  0
  1 20  1  0
  1 21  1  0
  1 22  1  0
  2 23  1  0
  3 24  1  0
  4 25  1  0
  5 26  1  0
  5 27  1  0
  6 28  1  0
  6 29  1  0
  7 30  1  0
  8 31  1  0
  8 32  1  0
  9 33  1  0
  9 34  1  0
 11 35  1  0
 14 36  1  0
 15 37  1  0
 15 38  1  0
 16 39  1  0
 16 40  1  0
 17 41  1  0
 17 42  1  0
 18 43  1  0
 18 44  1  0
 19 45  1  0
M  END
>  <Energy>  (1052) 
361.58663353397111

>  <compound_id>  (1052) 
8595

>  <target_id>  (1052) 
1

>  <reference_id>  (1052) 
44

>  <inspiration_ids>  (1052) 
[81, 44]

>  <energy_score>  (1052) 
315.3989032471347

>  <distance_score>  (1052) 
6.958897638792543

>  <path>  (1052) 
/opt/xchem-fragalysis-2/maxwin/BulkDock/SCRATCH/511016/C8595-P44/C8595-P44.minimised.mol

>  <scratch_subdir>  (1052) 
/opt/xchem-fragalysis-2/maxwin/BulkDock/SCRATCH/511016/C8595-P44

>  <fragmenstein_runtime>  (1052) 
7.795332193374634

>  <fragmenstein_outcome>  (1052) 
too moved

>  <fragmenstein_mode>  (1052) 
expansion

>  <fragmenstein_error>  (1052) 


$$$$
C8597-P81
     RDKit          3D

 47 49  0  0  0  0  0  0  0  0999 V2000
    7.8050    1.1493   20.7932 O   0  0  0  0  0  0  0  0  0  0  0  0
    7.0283    0.3653   20.3297 C   0  0  0  0  0  0  0  0  0  0  0  0
    5.3539    0.1956   21.6260 C   0  0  0  0  0  0  0  0  0  0  0  0
    3.6654    1.3446   22.0331 C   0  0  0  0  0  0  0  0  0  0  0  0
    2.5625    2.6553   21.2948 C   0  0  0  0  0  0  0  0  0  0  0  0
    1.2715    3.1839   21.9835 C   0  0  0  0  0  0  0  0  0  0  0  0
    1.4569    3.6319   23.3469 N   0  0  0  0  0  0  0  0  0  0  0  0
    2.0848    2.6315   24.1796 C   0  0  0  0  0  0  0  0  0  0  0  0
    3.3198    1.9514   23.5416 C   0  0  0  0  0  0  0  0  0  0  0  0
    7.0358   -0.3152   19.0266 N   0  0  0  0  0  0  0  0  0  0  0  0
    8.0734   -0.1322   17.6409 C   0  0  0  0  0  0  0  0  0  0  0  0
    9.2859    0.3156   16.7425 C   0  0  0  0  0  0  0  0  0  0  0  0
    9.8607   -0.4652   15.6866 C   0  0  0  0  0  0  0  0  0  0  0  0
   10.8086    0.3376   15.1001 C   0  0  0  0  0  0  0  0  0  0  0  0
   10.7424    1.5326   15.7520 N   0  0  0  0  0  0  0  0  0  0  0  0
   11.5214    2.7273   15.4584 C   0  0  0  0  0  0  0  0  0  0  0  0
   12.4392    3.1478   16.6195 C   0  0  0  0  0  0  0  0  0  0  0  0
   12.1678    4.6311   16.8451 C   0  0  0  0  0  0  0  0  0  0  0  0
   10.7295    4.8175   16.3955 C   0  0  0  0  0  0  0  0  0  0  0  0
   10.6456    3.9518   15.1463 C   0  0  0  0  0  0  0  0  0  0  0  0
    9.8002    1.5558   16.7112 N   0  0  0  0  0  0  0  0  0  0  0  0
    5.3042   -0.7847   22.1129 H   0  0  0  0  0  0  0  0  0  0  0  0
    5.7915    1.0100   22.2135 H   0  0  0  0  0  0  0  0  0  0  0  0
    2.9091    0.7666   21.6166 H   0  0  0  0  0  0  0  0  0  0  0  0
    3.0519    3.6364   21.2079 H   0  0  0  0  0  0  0  0  0  0  0  0
    2.2630    2.3566   20.2950 H   0  0  0  0  0  0  0  0  0  0  0  0
    0.4093    2.5283   21.8888 H   0  0  0  0  0  0  0  0  0  0  0  0
    0.9558    4.0672   21.4095 H   0  0  0  0  0  0  0  0  0  0  0  0
    0.5886    3.9736   23.7511 H   0  0  0  0  0  0  0  0  0  0  0  0
    1.3499    1.9542   24.5929 H   0  0  0  0  0  0  0  0  0  0  0  0
    2.4448    3.1614   25.0738 H   0  0  0  0  0  0  0  0  0  0  0  0
    3.7832    2.9265   23.4043 H   0  0  0  0  0  0  0  0  0  0  0  0
    3.7326    1.3129   24.3276 H   0  0  0  0  0  0  0  0  0  0  0  0
    6.2729   -0.9733   18.9956 H   0  0  0  0  0  0  0  0  0  0  0  0
    7.9450    0.9631   17.7170 H   0  0  0  0  0  0  0  0  0  0  0  0
    7.4041   -0.4464   16.8143 H   0  0  0  0  0  0  0  0  0  0  0  0
    9.6112   -1.4716   15.3792 H   0  0  0  0  0  0  0  0  0  0  0  0
   11.4894    0.1632   14.2785 H   0  0  0  0  0  0  0  0  0  0  0  0
   12.1267    2.4887   14.5747 H   0  0  0  0  0  0  0  0  0  0  0  0
   12.2283    2.5902   17.5375 H   0  0  0  0  0  0  0  0  0  0  0  0
   13.4936    2.9774   16.3769 H   0  0  0  0  0  0  0  0  0  0  0  0
   12.8387    5.2329   16.2206 H   0  0  0  0  0  0  0  0  0  0  0  0
   12.3203    4.9259   17.8874 H   0  0  0  0  0  0  0  0  0  0  0  0
   10.4911    5.8649   16.1900 H   0  0  0  0  0  0  0  0  0  0  0  0
   10.0383    4.4526   17.1639 H   0  0  0  0  0  0  0  0  0  0  0  0
    9.6114    3.7075   14.8842 H   0  0  0  0  0  0  0  0  0  0  0  0
   11.0798    4.5000   14.3007 H   0  0  0  0  0  0  0  0  0  0  0  0
  1  2  2  0
  2  3  1  0
  3  4  1  0
  4  5  1  0
  5  6  1  0
  6  7  1  0
  7  8  1  0
  8  9  1  0
  2 10  1  0
 10 11  1  0
 11 12  1  0
 12 13  1  0
 13 14  2  0
 14 15  1  0
 15 16  1  0
 16 17  1  0
 17 18  1  0
 18 19  1  0
 19 20  1  0
 15 21  1  0
  9  4  1  0
 21 12  2  0
 20 16  1  0
  3 22  1  0
  3 23  1  0
  4 24  1  0
  5 25  1  0
  5 26  1  0
  6 27  1  0
  6 28  1  0
  7 29  1  0
  8 30  1  0
  8 31  1  0
  9 32  1  0
  9 33  1  0
 10 34  1  0
 11 35  1  0
 11 36  1  0
 13 37  1  0
 14 38  1  0
 16 39  1  0
 17 40  1  0
 17 41  1  0
 18 42  1  0
 18 43  1  0
 19 44  1  0
 19 45  1  0
 20 46  1  0
 20 47  1  0
M  END
>  <Energy>  (1053) 
414.74852679985565

>  <compound_id>  (1053) 
8597

>  <target_id>  (1053) 
1

>  <reference_id>  (1053) 
81

>  <inspiration_ids>  (1053) 
[81, 44]

>  <energy_score>  (1053) 
369.4199096477581

>  <distance_score>  (1053) 
5.9383106190851604

>  <path>  (1053) 
/opt/xchem-fragalysis-2/maxwin/BulkDock/SCRATCH/511016/C8597-P81/C8597-P81.minimised.mol

>  <scratch_subdir>  (1053) 
/opt/xchem-fragalysis-2/maxwin/BulkDock/SCRATCH/511016/C8597-P81

>  <fragmenstein_runtime>  (1053) 
10.589812517166138

>  <fragmenstein_outcome>  (1053) 
too moved

>  <fragmenstein_mode>  (1053) 
expansion

>  <fragmenstein_error>  (1053) 


$$$$
C8597-P44
     RDKit          3D

 47 49  0  0  0  0  0  0  0  0999 V2000
    5.2861    0.5193   23.8870 O   0  0  0  0  0  0  0  0  0  0  0  0
    4.6108    1.0511   22.9898 C   0  0  0  0  0  0  0  0  0  0  0  0
    3.3838    2.0356   23.4574 C   0  0  0  0  0  0  0  0  0  0  0  0
    3.0389    2.1427   24.9618 C   0  0  0  0  0  0  0  0  0  0  0  0
    1.7798    3.0214   25.1713 C   0  0  0  0  0  0  0  0  0  0  0  0
    1.3572    3.0294   26.6395 C   0  0  0  0  0  0  0  0  0  0  0  0
    2.4285    3.5511   27.4823 N   0  0  0  0  0  0  0  0  0  0  0  0
    3.6774    2.8083   27.3094 C   0  0  0  0  0  0  0  0  0  0  0  0
    4.1377    2.7617   25.8446 C   0  0  0  0  0  0  0  0  0  0  0  0
    4.8256    1.0501   21.2616 N   0  0  0  0  0  0  0  0  0  0  0  0
    6.3543    0.3212   20.1027 C   0  0  0  0  0  0  0  0  0  0  0  0
    7.6842    1.3194   19.3475 C   0  0  0  0  0  0  0  0  0  0  0  0
    8.3808    0.9075   18.1610 C   0  0  0  0  0  0  0  0  0  0  0  0
    8.9428    2.0170   17.5872 C   0  0  0  0  0  0  0  0  0  0  0  0
    8.4981    3.0635   18.3405 N   0  0  0  0  0  0  0  0  0  0  0  0
    8.3532    4.4218   17.8207 C   0  0  0  0  0  0  0  0  0  0  0  0
    9.6547    5.0425   17.2942 C   0  0  0  0  0  0  0  0  0  0  0  0
   10.2666    5.7984   18.4737 C   0  0  0  0  0  0  0  0  0  0  0  0
    9.1615    5.9255   19.5177 C   0  0  0  0  0  0  0  0  0  0  0  0
    7.8869    5.4971   18.8037 C   0  0  0  0  0  0  0  0  0  0  0  0
    7.8191    2.6571   19.4364 N   0  0  0  0  0  0  0  0  0  0  0  0
    2.5906    2.1619   22.7381 H   0  0  0  0  0  0  0  0  0  0  0  0
    3.8764    3.0126   23.2951 H   0  0  0  0  0  0  0  0  0  0  0  0
    2.9076    1.1335   25.3616 H   0  0  0  0  0  0  0  0  0  0  0  0
    0.9393    2.6942   24.5554 H   0  0  0  0  0  0  0  0  0  0  0  0
    1.9938    4.0493   24.8466 H   0  0  0  0  0  0  0  0  0  0  0  0
    1.0747    2.0202   26.9623 H   0  0  0  0  0  0  0  0  0  0  0  0
    0.4735    3.6658   26.7570 H   0  0  0  0  0  0  0  0  0  0  0  0
    2.1423    3.5182   28.4597 H   0  0  0  0  0  0  0  0  0  0  0  0
    3.5599    1.7887   27.6968 H   0  0  0  0  0  0  0  0  0  0  0  0
    4.4569    3.2890   27.9106 H   0  0  0  0  0  0  0  0  0  0  0  0
    4.3824    3.7745   25.4999 H   0  0  0  0  0  0  0  0  0  0  0  0
    5.0598    2.1748   25.7842 H   0  0  0  0  0  0  0  0  0  0  0  0
    4.0354    1.5069   20.8165 H   0  0  0  0  0  0  0  0  0  0  0  0
    6.1076    0.4131   19.0195 H   0  0  0  0  0  0  0  0  0  0  0  0
    6.7969   -0.6814   20.3111 H   0  0  0  0  0  0  0  0  0  0  0  0
    8.2895    0.0023   17.6156 H   0  0  0  0  0  0  0  0  0  0  0  0
    9.4467    2.1642   16.6441 H   0  0  0  0  0  0  0  0  0  0  0  0
    7.6234    4.3282   17.0058 H   0  0  0  0  0  0  0  0  0  0  0  0
   10.3561    4.3328   16.8506 H   0  0  0  0  0  0  0  0  0  0  0  0
    9.4076    5.7686   16.5083 H   0  0  0  0  0  0  0  0  0  0  0  0
   10.6260    6.7822   18.1531 H   0  0  0  0  0  0  0  0  0  0  0  0
   11.1228    5.2615   18.8936 H   0  0  0  0  0  0  0  0  0  0  0  0
    9.0856    6.9423   19.9149 H   0  0  0  0  0  0  0  0  0  0  0  0
    9.3820    5.2583   20.3574 H   0  0  0  0  0  0  0  0  0  0  0  0
    7.0924    5.1808   19.4803 H   0  0  0  0  0  0  0  0  0  0  0  0
    7.4933    6.3535   18.2397 H   0  0  0  0  0  0  0  0  0  0  0  0
  1  2  2  0
  2  3  1  0
  3  4  1  0
  4  5  1  0
  5  6  1  0
  6  7  1  0
  7  8  1  0
  8  9  1  0
  2 10  1  0
 10 11  1  0
 11 12  1  0
 12 13  1  0
 13 14  2  0
 14 15  1  0
 15 16  1  0
 16 17  1  0
 17 18  1  0
 18 19  1  0
 19 20  1  0
 15 21  1  0
  9  4  1  0
 21 12  2  0
 20 16  1  0
  3 22  1  0
  3 23  1  0
  4 24  1  0
  5 25  1  0
  5 26  1  0
  6 27  1  0
  6 28  1  0
  7 29  1  0
  8 30  1  0
  8 31  1  0
  9 32  1  0
  9 33  1  0
 10 34  1  0
 11 35  1  0
 11 36  1  0
 13 37  1  0
 14 38  1  0
 16 39  1  0
 17 40  1  0
 17 41  1  0
 18 42  1  0
 18 43  1  0
 19 44  1  0
 19 45  1  0
 20 46  1  0
 20 47  1  0
M  END
>  <Energy>  (1054) 
219.48212499633996

>  <compound_id>  (1054) 
8597

>  <target_id>  (1054) 
1

>  <reference_id>  (1054) 
44

>  <inspiration_ids>  (1054) 
[81, 44]

>  <energy_score>  (1054) 
174.15350784424865

>  <distance_score>  (1054) 
5.853719749353664

>  <path>  (1054) 
/opt/xchem-fragalysis-2/maxwin/BulkDock/SCRATCH/511016/C8597-P44/C8597-P44.minimised.mol

>  <scratch_subdir>  (1054) 
/opt/xchem-fragalysis-2/maxwin/BulkDock/SCRATCH/511016/C8597-P44

>  <fragmenstein_runtime>  (1054) 
6.923487186431885

>  <fragmenstein_outcome>  (1054) 
too moved

>  <fragmenstein_mode>  (1054) 
expansion

>  <fragmenstein_error>  (1054) 


$$$$
C8598-P81
     RDKit          3D

 50 52  0  0  0  0  0  0  0  0999 V2000
    0.5815    3.4078   21.5926 C   0  0  0  0  0  0  0  0  0  0  0  0
    1.0393    4.7179   22.2088 C   0  0  0  0  0  0  0  0  0  0  0  0
    2.5522    5.0948   21.5607 C   0  0  0  0  0  0  0  0  0  0  0  0
    2.9736    4.7345   19.9488 C   0  0  0  0  0  0  0  0  0  0  0  0
    2.1800    4.2292   19.2319 O   0  0  0  0  0  0  0  0  0  0  0  0
    4.5245    5.0832   19.7013 N   0  0  0  0  0  0  0  0  0  0  0  0
    5.3842    4.7859   18.5756 C   0  0  0  0  0  0  0  0  0  0  0  0
    5.2898    3.9688   17.4429 C   0  0  0  0  0  0  0  0  0  0  0  0
    6.6103    3.7529   16.9483 C   0  0  0  0  0  0  0  0  0  0  0  0
    7.5059    4.4767   17.6185 N   0  0  0  0  0  0  0  0  0  0  0  0
    6.7313    5.1972   18.4850 N   0  0  0  0  0  0  0  0  0  0  0  0
    7.1961    6.4804   19.0178 C   0  0  0  0  0  0  0  0  0  0  0  0
    7.5526    6.4287   20.5116 C   0  0  0  0  0  0  0  0  0  0  0  0
    9.0612    6.6656   20.6113 C   0  0  0  0  0  0  0  0  0  0  0  0
    9.5959    6.5825   19.1900 C   0  0  0  0  0  0  0  0  0  0  0  0
    8.4375    7.0770   18.3410 C   0  0  0  0  0  0  0  0  0  0  0  0
    0.8065    4.7171   23.8161 C   0  0  0  0  0  0  0  0  0  0  0  0
   -0.6965    4.5776   24.2546 C   0  0  0  0  0  0  0  0  0  0  0  0
   -1.0378    3.2772   25.0037 C   0  0  0  0  0  0  0  0  0  0  0  0
   -0.2365    3.0386   26.1985 N   0  0  0  0  0  0  0  0  0  0  0  0
    1.1259    3.5532   26.0899 C   0  0  0  0  0  0  0  0  0  0  0  0
    1.6382    3.7171   24.6440 C   0  0  0  0  0  0  0  0  0  0  0  0
    0.2633    3.5568   20.5568 H   0  0  0  0  0  0  0  0  0  0  0  0
   -0.2743    2.9720   22.1115 H   0  0  0  0  0  0  0  0  0  0  0  0
    1.4087    2.6952   21.5970 H   0  0  0  0  0  0  0  0  0  0  0  0
    0.3779    5.5038   21.8173 H   0  0  0  0  0  0  0  0  0  0  0  0
    3.2935    4.5849   22.1850 H   0  0  0  0  0  0  0  0  0  0  0  0
    2.6950    6.1749   21.6806 H   0  0  0  0  0  0  0  0  0  0  0  0
    4.8899    5.5879   20.4957 H   0  0  0  0  0  0  0  0  0  0  0  0
    4.3857    3.4922   17.0907 H   0  0  0  0  0  0  0  0  0  0  0  0
    6.9283    3.1003   16.1495 H   0  0  0  0  0  0  0  0  0  0  0  0
    6.3548    7.1684   18.8596 H   0  0  0  0  0  0  0  0  0  0  0  0
    7.2637    5.4881   20.9913 H   0  0  0  0  0  0  0  0  0  0  0  0
    7.0277    7.2260   21.0518 H   0  0  0  0  0  0  0  0  0  0  0  0
    9.5482    5.9429   21.2732 H   0  0  0  0  0  0  0  0  0  0  0  0
    9.2485    7.6648   21.0226 H   0  0  0  0  0  0  0  0  0  0  0  0
    9.8464    5.5487   18.9323 H   0  0  0  0  0  0  0  0  0  0  0  0
   10.4969    7.1881   19.0542 H   0  0  0  0  0  0  0  0  0  0  0  0
    8.5498    6.8142   17.2853 H   0  0  0  0  0  0  0  0  0  0  0  0
    8.3917    8.1721   18.4023 H   0  0  0  0  0  0  0  0  0  0  0  0
    1.1187    5.7243   24.1287 H   0  0  0  0  0  0  0  0  0  0  0  0
   -1.3569    4.6872   23.3867 H   0  0  0  0  0  0  0  0  0  0  0  0
   -0.9334    5.4225   24.9160 H   0  0  0  0  0  0  0  0  0  0  0  0
   -0.9041    2.4483   24.3060 H   0  0  0  0  0  0  0  0  0  0  0  0
   -2.0964    3.2851   25.2848 H   0  0  0  0  0  0  0  0  0  0  0  0
   -0.2343    2.0518   26.4450 H   0  0  0  0  0  0  0  0  0  0  0  0
    1.1713    4.5252   26.5954 H   0  0  0  0  0  0  0  0  0  0  0  0
    1.8024    2.8882   26.6389 H   0  0  0  0  0  0  0  0  0  0  0  0
    1.6537    2.7385   24.1572 H   0  0  0  0  0  0  0  0  0  0  0  0
    2.6797    4.0593   24.6704 H   0  0  0  0  0  0  0  0  0  0  0  0
  1  2  1  0
  2  3  1  0
  3  4  1  0
  4  5  2  0
  4  6  1  0
  6  7  1  0
  7  8  2  0
  8  9  1  0
  9 10  2  0
 10 11  1  0
 11 12  1  0
 12 13  1  0
 13 14  1  0
 14 15  1  0
 15 16  1  0
  2 17  1  0
 17 18  1  0
 18 19  1  0
 19 20  1  0
 20 21  1  0
 21 22  1  0
 11  7  1  0
 16 12  1  0
 22 17  1  0
  1 23  1  0
  1 24  1  0
  1 25  1  0
  2 26  1  0
  3 27  1  0
  3 28  1  0
  6 29  1  0
  8 30  1  0
  9 31  1  0
 12 32  1  0
 13 33  1  0
 13 34  1  0
 14 35  1  0
 14 36  1  0
 15 37  1  0
 15 38  1  0
 16 39  1  0
 16 40  1  0
 17 41  1  0
 18 42  1  0
 18 43  1  0
 19 44  1  0
 19 45  1  0
 20 46  1  0
 21 47  1  0
 21 48  1  0
 22 49  1  0
 22 50  1  0
M  END
>  <Energy>  (1055) 
95.224825908337152

>  <compound_id>  (1055) 
8598

>  <target_id>  (1055) 
1

>  <reference_id>  (1055) 
81

>  <inspiration_ids>  (1055) 
[81, 44]

>  <energy_score>  (1055) 
-6.180746318044214

>  <distance_score>  (1055) 
6.949465203861458

>  <path>  (1055) 
/opt/xchem-fragalysis-2/maxwin/BulkDock/SCRATCH/511016/C8598-P81/C8598-P81.minimised.mol

>  <scratch_subdir>  (1055) 
/opt/xchem-fragalysis-2/maxwin/BulkDock/SCRATCH/511016/C8598-P81

>  <fragmenstein_runtime>  (1055) 
7.419849872589111

>  <fragmenstein_outcome>  (1055) 
too moved

>  <fragmenstein_mode>  (1055) 
expansion

>  <fragmenstein_error>  (1055) 


$$$$
C8598-P44
     RDKit          3D

 50 52  0  0  0  0  0  0  0  0999 V2000
    4.4540    3.4797   23.2523 C   0  0  0  0  0  0  0  0  0  0  0  0
    4.2505    1.8520   23.0326 C   0  0  0  0  0  0  0  0  0  0  0  0
    4.7710    0.8934   21.3102 C   0  0  0  0  0  0  0  0  0  0  0  0
    6.5955    0.5788   20.1304 C   0  0  0  0  0  0  0  0  0  0  0  0
    7.0055   -0.4604   19.7151 O   0  0  0  0  0  0  0  0  0  0  0  0
    7.3719    2.0998   19.7749 N   0  0  0  0  0  0  0  0  0  0  0  0
    8.4470    2.4147   18.9421 C   0  0  0  0  0  0  0  0  0  0  0  0
    9.1382    3.6141   19.0470 C   0  0  0  0  0  0  0  0  0  0  0  0
    8.9787    4.2299   17.7878 C   0  0  0  0  0  0  0  0  0  0  0  0
    8.3772    3.4251   16.9106 N   0  0  0  0  0  0  0  0  0  0  0  0
    8.4731    2.2057   17.5273 N   0  0  0  0  0  0  0  0  0  0  0  0
    9.3572    1.2566   16.8472 C   0  0  0  0  0  0  0  0  0  0  0  0
   10.4388    1.8609   15.9074 C   0  0  0  0  0  0  0  0  0  0  0  0
    9.8734    1.7288   14.5254 C   0  0  0  0  0  0  0  0  0  0  0  0
    9.2710    0.3442   14.5835 C   0  0  0  0  0  0  0  0  0  0  0  0
    8.7176    0.1677   15.9932 C   0  0  0  0  0  0  0  0  0  0  0  0
    4.3677    1.3524   24.6249 C   0  0  0  0  0  0  0  0  0  0  0  0
    3.3712    2.1535   25.5554 C   0  0  0  0  0  0  0  0  0  0  0  0
    2.9783    1.4405   26.8581 C   0  0  0  0  0  0  0  0  0  0  0  0
    4.1168    0.7352   27.4208 N   0  0  0  0  0  0  0  0  0  0  0  0
    4.6329   -0.2992   26.5202 C   0  0  0  0  0  0  0  0  0  0  0  0
    4.2679   -0.1013   25.0403 C   0  0  0  0  0  0  0  0  0  0  0  0
    3.5421    3.8917   23.7028 H   0  0  0  0  0  0  0  0  0  0  0  0
    5.2683    3.6838   23.9553 H   0  0  0  0  0  0  0  0  0  0  0  0
    4.5988    4.1133   22.3772 H   0  0  0  0  0  0  0  0  0  0  0  0
    3.1663    1.9643   22.8504 H   0  0  0  0  0  0  0  0  0  0  0  0
    3.7631    1.0312   21.0057 H   0  0  0  0  0  0  0  0  0  0  0  0
    4.6269   -0.1666   21.6935 H   0  0  0  0  0  0  0  0  0  0  0  0
    6.9017    2.8420   20.3053 H   0  0  0  0  0  0  0  0  0  0  0  0
    9.4443    4.1177   19.9499 H   0  0  0  0  0  0  0  0  0  0  0  0
    9.2212    5.2426   17.4961 H   0  0  0  0  0  0  0  0  0  0  0  0
    9.8274    0.7685   17.6791 H   0  0  0  0  0  0  0  0  0  0  0  0
   11.3430    1.2482   15.9095 H   0  0  0  0  0  0  0  0  0  0  0  0
   10.7255    2.8943   16.1081 H   0  0  0  0  0  0  0  0  0  0  0  0
   10.6323    1.8187   13.7428 H   0  0  0  0  0  0  0  0  0  0  0  0
    9.1503    2.5293   14.3951 H   0  0  0  0  0  0  0  0  0  0  0  0
    8.5240    0.1702   13.8141 H   0  0  0  0  0  0  0  0  0  0  0  0
   10.0710   -0.3920   14.4332 H   0  0  0  0  0  0  0  0  0  0  0  0
    7.6335    0.1546   16.0485 H   0  0  0  0  0  0  0  0  0  0  0  0
    9.0516   -0.8178   16.3244 H   0  0  0  0  0  0  0  0  0  0  0  0
    5.3568    1.6690   24.9835 H   0  0  0  0  0  0  0  0  0  0  0  0
    2.4539    2.4075   25.0144 H   0  0  0  0  0  0  0  0  0  0  0  0
    3.8477    3.1037   25.8303 H   0  0  0  0  0  0  0  0  0  0  0  0
    2.1467    0.7456   26.7026 H   0  0  0  0  0  0  0  0  0  0  0  0
    2.6211    2.1875   27.5760 H   0  0  0  0  0  0  0  0  0  0  0  0
    3.8770    0.3224   28.3204 H   0  0  0  0  0  0  0  0  0  0  0  0
    5.7232   -0.3264   26.6263 H   0  0  0  0  0  0  0  0  0  0  0  0
    4.2599   -1.2793   26.8409 H   0  0  0  0  0  0  0  0  0  0  0  0
    3.2352   -0.3955   24.9349 H   0  0  0  0  0  0  0  0  0  0  0  0
    4.8625   -0.7641   24.4160 H   0  0  0  0  0  0  0  0  0  0  0  0
  1  2  1  0
  2  3  1  0
  3  4  1  0
  4  5  2  0
  4  6  1  0
  6  7  1  0
  7  8  2  0
  8  9  1  0
  9 10  2  0
 10 11  1  0
 11 12  1  0
 12 13  1  0
 13 14  1  0
 14 15  1  0
 15 16  1  0
  2 17  1  0
 17 18  1  0
 18 19  1  0
 19 20  1  0
 20 21  1  0
 21 22  1  0
 11  7  1  0
 16 12  1  0
 22 17  1  0
  1 23  1  0
  1 24  1  0
  1 25  1  0
  2 26  1  0
  3 27  1  0
  3 28  1  0
  6 29  1  0
  8 30  1  0
  9 31  1  0
 12 32  1  0
 13 33  1  0
 13 34  1  0
 14 35  1  0
 14 36  1  0
 15 37  1  0
 15 38  1  0
 16 39  1  0
 16 40  1  0
 17 41  1  0
 18 42  1  0
 18 43  1  0
 19 44  1  0
 19 45  1  0
 20 46  1  0
 21 47  1  0
 21 48  1  0
 22 49  1  0
 22 50  1  0
M  END
>  <Energy>  (1056) 
365.48571315388267

>  <compound_id>  (1056) 
8598

>  <target_id>  (1056) 
1

>  <reference_id>  (1056) 
44

>  <inspiration_ids>  (1056) 
[81, 44]

>  <energy_score>  (1056) 
277.1806018020042

>  <distance_score>  (1056) 
6.6272720842465995

>  <path>  (1056) 
/opt/xchem-fragalysis-2/maxwin/BulkDock/SCRATCH/511016/C8598-P44/C8598-P44.minimised.mol

>  <scratch_subdir>  (1056) 
/opt/xchem-fragalysis-2/maxwin/BulkDock/SCRATCH/511016/C8598-P44

>  <fragmenstein_runtime>  (1056) 
8.582513093948364

>  <fragmenstein_outcome>  (1056) 
too moved

>  <fragmenstein_mode>  (1056) 
expansion

>  <fragmenstein_error>  (1056) 


$$$$
C8599-P81
     RDKit          3D

 52 54  0  0  0  0  0  0  0  0999 V2000
    1.0442    3.4733   21.7046 C   0  0  0  0  0  0  0  0  0  0  0  0
    2.5540    3.1575   21.8286 C   0  0  0  0  0  0  0  0  0  0  0  0
    3.4324    1.9672   23.1035 C   0  0  0  0  0  0  0  0  0  0  0  0
    4.5377    1.2290   22.3966 N   0  0  0  0  0  0  0  0  0  0  0  0
    6.3383    1.6327   21.8572 C   0  0  0  0  0  0  0  0  0  0  0  0
    7.0269    2.5493   22.0692 O   0  0  0  0  0  0  0  0  0  0  0  0
    6.7401    0.1803   20.6173 N   0  0  0  0  0  0  0  0  0  0  0  0
    7.7182    0.0683   19.7688 C   0  0  0  0  0  0  0  0  0  0  0  0
    7.6937    1.5799   18.6281 C   0  0  0  0  0  0  0  0  0  0  0  0
    8.3635    1.5289   17.4475 N   0  0  0  0  0  0  0  0  0  0  0  0
    8.4439    0.2084   17.2752 N   0  0  0  0  0  0  0  0  0  0  0  0
    9.0458   -0.1339   15.9758 C   0  0  0  0  0  0  0  0  0  0  0  0
    9.9672    1.0343   15.4777 C   0  0  0  0  0  0  0  0  0  0  0  0
   10.6946    0.5014   14.2650 C   0  0  0  0  0  0  0  0  0  0  0  0
   11.1026   -0.8668   14.7441 C   0  0  0  0  0  0  0  0  0  0  0  0
    9.9230   -1.3572   15.5945 C   0  0  0  0  0  0  0  0  0  0  0  0
    7.7134   -0.4654   18.4753 C   0  0  0  0  0  0  0  0  0  0  0  0
    3.5367    2.3899   23.7131 C   0  0  0  0  0  0  0  0  0  0  0  0
    1.9234    3.1089   24.3312 C   0  0  0  0  0  0  0  0  0  0  0  0
    1.9700    3.7201   25.7339 C   0  0  0  0  0  0  0  0  0  0  0  0
    2.1648    2.7196   26.7562 N   0  0  0  0  0  0  0  0  0  0  0  0
    3.5122    2.1987   26.6522 C   0  0  0  0  0  0  0  0  0  0  0  0
    3.7064    1.4352   25.3496 C   0  0  0  0  0  0  0  0  0  0  0  0
    0.3711    2.7625   22.1740 H   0  0  0  0  0  0  0  0  0  0  0  0
    0.8111    4.4766   22.0789 H   0  0  0  0  0  0  0  0  0  0  0  0
    0.7717    3.5138   20.6420 H   0  0  0  0  0  0  0  0  0  0  0  0
    2.6914    2.6823   20.8520 H   0  0  0  0  0  0  0  0  0  0  0  0
    3.1006    4.1126   21.8544 H   0  0  0  0  0  0  0  0  0  0  0  0
    2.4826    1.1944   23.6107 H   0  0  0  0  0  0  0  0  0  0  0  0
    2.9114    1.3970   22.2067 H   0  0  0  0  0  0  0  0  0  0  0  0
    6.0372   -0.5261   20.6728 H   0  0  0  0  0  0  0  0  0  0  0  0
    7.3315    2.5781   18.6884 H   0  0  0  0  0  0  0  0  0  0  0  0
    8.1890   -0.2046   15.3270 H   0  0  0  0  0  0  0  0  0  0  0  0
    9.4254    1.9535   15.2447 H   0  0  0  0  0  0  0  0  0  0  0  0
   10.7044    1.2927   16.2495 H   0  0  0  0  0  0  0  0  0  0  0  0
   11.5530    1.1189   13.9863 H   0  0  0  0  0  0  0  0  0  0  0  0
   10.0196    0.4404   13.4079 H   0  0  0  0  0  0  0  0  0  0  0  0
   11.3569   -1.5524   13.9321 H   0  0  0  0  0  0  0  0  0  0  0  0
   11.9948   -0.7814   15.3784 H   0  0  0  0  0  0  0  0  0  0  0  0
   10.3855   -1.9185   16.3884 H   0  0  0  0  0  0  0  0  0  0  0  0
    9.3153   -2.0610   15.0160 H   0  0  0  0  0  0  0  0  0  0  0  0
    6.7144   -0.7715   18.1627 H   0  0  0  0  0  0  0  0  0  0  0  0
    3.9779    3.5541   23.7678 H   0  0  0  0  0  0  0  0  0  0  0  0
    1.0876    2.4134   24.2871 H   0  0  0  0  0  0  0  0  0  0  0  0
    1.7254    4.0079   23.7574 H   0  0  0  0  0  0  0  0  0  0  0  0
    1.0096    4.2161   25.9208 H   0  0  0  0  0  0  0  0  0  0  0  0
    2.7353    4.5047   25.7870 H   0  0  0  0  0  0  0  0  0  0  0  0
    2.0480    3.1509   27.6746 H   0  0  0  0  0  0  0  0  0  0  0  0
    3.6706    1.5012   27.4834 H   0  0  0  0  0  0  0  0  0  0  0  0
    4.2572    2.9923   26.7772 H   0  0  0  0  0  0  0  0  0  0  0  0
    2.9928    0.6152   25.3473 H   0  0  0  0  0  0  0  0  0  0  0  0
    4.6486    0.8982   25.4082 H   0  0  0  0  0  0  0  0  0  0  0  0
  1  2  1  0
  2  3  1  0
  3  4  1  0
  4  5  1  0
  5  6  2  0
  5  7  1  0
  7  8  1  0
  8  9  1  0
  9 10  2  0
 10 11  1  0
 11 12  1  0
 12 13  1  0
 13 14  1  0
 14 15  1  0
 15 16  1  0
 11 17  1  0
  4 18  1  0
 18 19  1  0
 19 20  1  0
 20 21  1  0
 21 22  1  0
 22 23  1  0
 17  8  2  0
 23 18  1  0
 16 12  1  0
  1 24  1  0
  1 25  1  0
  1 26  1  0
  2 27  1  0
  2 28  1  0
  3 29  1  0
  3 30  1  0
  7 31  1  0
  9 32  1  0
 12 33  1  0
 13 34  1  0
 13 35  1  0
 14 36  1  0
 14 37  1  0
 15 38  1  0
 15 39  1  0
 16 40  1  0
 16 41  1  0
 17 42  1  0
 18 43  1  0
 19 44  1  0
 19 45  1  0
 20 46  1  0
 20 47  1  0
 21 48  1  0
 22 49  1  0
 22 50  1  0
 23 51  1  0
 23 52  1  0
M  END
>  <Energy>  (1057) 
1135.0606997348668

>  <compound_id>  (1057) 
8599

>  <target_id>  (1057) 
1

>  <reference_id>  (1057) 
81

>  <inspiration_ids>  (1057) 
[81, 44]

>  <energy_score>  (1057) 
1106.7538598382348

>  <distance_score>  (1057) 
5.850035679763314

>  <path>  (1057) 
/opt/xchem-fragalysis-2/maxwin/BulkDock/SCRATCH/511016/C8599-P81/C8599-P81.minimised.mol

>  <scratch_subdir>  (1057) 
/opt/xchem-fragalysis-2/maxwin/BulkDock/SCRATCH/511016/C8599-P81

>  <fragmenstein_runtime>  (1057) 
9.742246150970459

>  <fragmenstein_outcome>  (1057) 
too moved

>  <fragmenstein_mode>  (1057) 
expansion

>  <fragmenstein_error>  (1057) 


$$$$
C8599-P44
     RDKit          3D

 52 54  0  0  0  0  0  0  0  0999 V2000
    4.2339    4.7598   25.4967 C   0  0  0  0  0  0  0  0  0  0  0  0
    4.2972    3.2987   25.0634 C   0  0  0  0  0  0  0  0  0  0  0  0
    2.8177    2.6587   24.1131 C   0  0  0  0  0  0  0  0  0  0  0  0
    3.2698    2.1419   22.9835 N   0  0  0  0  0  0  0  0  0  0  0  0
    4.6571    1.0333   22.9392 C   0  0  0  0  0  0  0  0  0  0  0  0
    5.2685    0.5201   23.7901 O   0  0  0  0  0  0  0  0  0  0  0  0
    4.9492    1.0784   21.1413 N   0  0  0  0  0  0  0  0  0  0  0  0
    6.5013    0.4254   20.0669 C   0  0  0  0  0  0  0  0  0  0  0  0
    7.4300    1.9978   19.7283 C   0  0  0  0  0  0  0  0  0  0  0  0
    8.4519    2.4186   19.0234 N   0  0  0  0  0  0  0  0  0  0  0  0
    8.9207    1.3182   18.5323 N   0  0  0  0  0  0  0  0  0  0  0  0
   10.6118    1.6133   18.1085 C   0  0  0  0  0  0  0  0  0  0  0  0
   12.1013    2.1174   19.7024 C   0  0  0  0  0  0  0  0  0  0  0  0
   13.9347    1.2081   19.0457 C   0  0  0  0  0  0  0  0  0  0  0  0
   13.6186    0.2907   17.0587 C   0  0  0  0  0  0  0  0  0  0  0  0
   11.7439    1.0494   16.4068 C   0  0  0  0  0  0  0  0  0  0  0  0
    7.8092    0.2787   19.1198 C   0  0  0  0  0  0  0  0  0  0  0  0
    2.0692    2.8449   24.4066 C   0  0  0  0  0  0  0  0  0  0  0  0
    1.2789    4.3588   24.0907 C   0  0  0  0  0  0  0  0  0  0  0  0
   -0.0394    4.4454   24.8648 C   0  0  0  0  0  0  0  0  0  0  0  0
    0.1284    4.1818   26.2912 N   0  0  0  0  0  0  0  0  0  0  0  0
    0.4403    2.7883   26.5807 C   0  0  0  0  0  0  0  0  0  0  0  0
    1.8577    2.4420   26.1304 C   0  0  0  0  0  0  0  0  0  0  0  0
    5.1422    5.0169   26.0517 H   0  0  0  0  0  0  0  0  0  0  0  0
    3.3823    4.9666   26.1481 H   0  0  0  0  0  0  0  0  0  0  0  0
    4.1849    5.4237   24.6285 H   0  0  0  0  0  0  0  0  0  0  0  0
    5.1695    3.1938   24.4158 H   0  0  0  0  0  0  0  0  0  0  0  0
    4.4619    2.6457   25.9304 H   0  0  0  0  0  0  0  0  0  0  0  0
    3.2887    1.6194   24.5865 H   0  0  0  0  0  0  0  0  0  0  0  0
    3.2800    3.6285   23.4488 H   0  0  0  0  0  0  0  0  0  0  0  0
    4.1816    1.5238   20.6910 H   0  0  0  0  0  0  0  0  0  0  0  0
    6.9648    2.8945   20.0692 H   0  0  0  0  0  0  0  0  0  0  0  0
   10.1815    2.5433   17.6031 H   0  0  0  0  0  0  0  0  0  0  0  0
   12.4803    3.1990   19.8175 H   0  0  0  0  0  0  0  0  0  0  0  0
   11.6773    2.1918   20.7506 H   0  0  0  0  0  0  0  0  0  0  0  0
   14.7171    1.9971   19.0159 H   0  0  0  0  0  0  0  0  0  0  0  0
   14.2562    0.4535   19.7991 H   0  0  0  0  0  0  0  0  0  0  0  0
   14.4426    0.5047   16.3353 H   0  0  0  0  0  0  0  0  0  0  0  0
   13.5475   -0.8299   17.0529 H   0  0  0  0  0  0  0  0  0  0  0  0
   11.2137    0.2572   15.8462 H   0  0  0  0  0  0  0  0  0  0  0  0
   11.8951    1.9415   15.7725 H   0  0  0  0  0  0  0  0  0  0  0  0
    8.2213   -0.6643   19.0164 H   0  0  0  0  0  0  0  0  0  0  0  0
    1.0504    2.3502   24.0767 H   0  0  0  0  0  0  0  0  0  0  0  0
    1.0884    4.4230   23.0113 H   0  0  0  0  0  0  0  0  0  0  0  0
    1.9325    5.1888   24.3693 H   0  0  0  0  0  0  0  0  0  0  0  0
   -0.7841    3.7652   24.4338 H   0  0  0  0  0  0  0  0  0  0  0  0
   -0.4398    5.4583   24.7420 H   0  0  0  0  0  0  0  0  0  0  0  0
   -0.7427    4.4317   26.7690 H   0  0  0  0  0  0  0  0  0  0  0  0
   -0.2979    2.1198   26.1259 H   0  0  0  0  0  0  0  0  0  0  0  0
    0.3755    2.6328   27.6637 H   0  0  0  0  0  0  0  0  0  0  0  0
    2.5428    3.0356   26.7416 H   0  0  0  0  0  0  0  0  0  0  0  0
    2.0830    1.3877   26.3252 H   0  0  0  0  0  0  0  0  0  0  0  0
  1  2  1  0
  2  3  1  0
  3  4  1  0
  4  5  1  0
  5  6  2  0
  5  7  1  0
  7  8  1  0
  8  9  1  0
  9 10  2  0
 10 11  1  0
 11 12  1  0
 12 13  1  0
 13 14  1  0
 14 15  1  0
 15 16  1  0
 11 17  1  0
  4 18  1  0
 18 19  1  0
 19 20  1  0
 20 21  1  0
 21 22  1  0
 22 23  1  0
 17  8  2  0
 23 18  1  0
 16 12  1  0
  1 24  1  0
  1 25  1  0
  1 26  1  0
  2 27  1  0
  2 28  1  0
  3 29  1  0
  3 30  1  0
  7 31  1  0
  9 32  1  0
 12 33  1  0
 13 34  1  0
 13 35  1  0
 14 36  1  0
 14 37  1  0
 15 38  1  0
 15 39  1  0
 16 40  1  0
 16 41  1  0
 17 42  1  0
 18 43  1  0
 19 44  1  0
 19 45  1  0
 20 46  1  0
 20 47  1  0
 21 48  1  0
 22 49  1  0
 22 50  1  0
 23 51  1  0
 23 52  1  0
M  END
>  <Energy>  (1058) 
1712.5339745347972

>  <compound_id>  (1058) 
8599

>  <target_id>  (1058) 
1

>  <reference_id>  (1058) 
44

>  <inspiration_ids>  (1058) 
[81, 44]

>  <energy_score>  (1058) 
1684.2271346381651

>  <distance_score>  (1058) 
5.648421808376621

>  <path>  (1058) 
/opt/xchem-fragalysis-2/maxwin/BulkDock/SCRATCH/511016/C8599-P44/C8599-P44.minimised.mol

>  <scratch_subdir>  (1058) 
/opt/xchem-fragalysis-2/maxwin/BulkDock/SCRATCH/511016/C8599-P44

>  <fragmenstein_runtime>  (1058) 
10.285876035690308

>  <fragmenstein_outcome>  (1058) 
too moved

>  <fragmenstein_mode>  (1058) 
expansion

>  <fragmenstein_error>  (1058) 


$$$$
C8600-P81
     RDKit          3D

 47 49  0  0  0  0  0  0  0  0999 V2000
   -0.5964   -4.3355   15.4197 C   0  0  0  0  0  0  0  0  0  0  0  0
    0.6519   -3.2558   16.1072 S   0  0  0  0  0  0  0  0  0  0  0  0
    0.7302   -3.6083   17.5071 O   0  0  0  0  0  0  0  0  0  0  0  0
    1.8102   -3.3452   15.0915 N   0  0  0  0  0  0  0  0  0  0  0  0
    3.2387   -3.5129   15.6750 S   0  0  0  0  0  0  0  0  0  0  0  0
    3.6658   -2.4842   16.5953 O   0  0  0  0  0  0  0  0  0  0  0  0
    3.7680   -4.8503   15.8962 O   0  0  0  0  0  0  0  0  0  0  0  0
    4.0948   -3.1048   14.0999 C   0  0  0  0  0  0  0  0  0  0  0  0
    3.7201   -3.5778   12.8378 C   0  0  0  0  0  0  0  0  0  0  0  0
    4.2002   -2.6413   11.9308 C   0  0  0  0  0  0  0  0  0  0  0  0
    4.8949   -1.7007   12.5486 N   0  0  0  0  0  0  0  0  0  0  0  0
    5.1196   -2.1840   13.8038 N   0  0  0  0  0  0  0  0  0  0  0  0
    6.5195   -2.0526   14.2170 C   0  0  0  0  0  0  0  0  0  0  0  0
    7.2071   -1.8188   15.5364 C   0  0  0  0  0  0  0  0  0  0  0  0
    8.3551   -0.8543   15.6123 C   0  0  0  0  0  0  0  0  0  0  0  0
    8.6817   -0.7104   14.1941 C   0  0  0  0  0  0  0  0  0  0  0  0
    7.4153   -1.2451   13.3441 C   0  0  0  0  0  0  0  0  0  0  0  0
   -0.0995   -1.6188   15.9638 C   0  0  0  0  0  0  0  0  0  0  0  0
    0.7386   -0.5786   16.6885 C   0  0  0  0  0  0  0  0  0  0  0  0
    0.1816    0.8259   16.5030 C   0  0  0  0  0  0  0  0  0  0  0  0
   -1.2197    0.9062   16.8626 N   0  0  0  0  0  0  0  0  0  0  0  0
   -2.0580   -0.0981   16.2268 C   0  0  0  0  0  0  0  0  0  0  0  0
   -1.5444   -1.5249   16.4411 C   0  0  0  0  0  0  0  0  0  0  0  0
   -1.4553   -4.3652   16.0923 H   0  0  0  0  0  0  0  0  0  0  0  0
   -0.1717   -5.3394   15.3405 H   0  0  0  0  0  0  0  0  0  0  0  0
   -0.8853   -3.9697   14.4325 H   0  0  0  0  0  0  0  0  0  0  0  0
    3.0058   -4.3668   12.6493 H   0  0  0  0  0  0  0  0  0  0  0  0
    4.0258   -2.5562   10.8660 H   0  0  0  0  0  0  0  0  0  0  0  0
    6.8108   -3.0539   14.0347 H   0  0  0  0  0  0  0  0  0  0  0  0
    7.6375   -2.7901   15.7117 H   0  0  0  0  0  0  0  0  0  0  0  0
    6.6000   -1.4845   16.3430 H   0  0  0  0  0  0  0  0  0  0  0  0
    8.1545    0.0726   16.1550 H   0  0  0  0  0  0  0  0  0  0  0  0
    9.2064   -1.2892   16.1339 H   0  0  0  0  0  0  0  0  0  0  0  0
    9.0371    0.2699   13.8866 H   0  0  0  0  0  0  0  0  0  0  0  0
    9.6044   -1.3059   14.2174 H   0  0  0  0  0  0  0  0  0  0  0  0
    6.9498   -0.4565   12.8083 H   0  0  0  0  0  0  0  0  0  0  0  0
    7.5000   -1.8471   12.4474 H   0  0  0  0  0  0  0  0  0  0  0  0
   -0.0817   -1.4029   14.8860 H   0  0  0  0  0  0  0  0  0  0  0  0
    1.7282   -0.6191   16.2430 H   0  0  0  0  0  0  0  0  0  0  0  0
    0.8392   -0.8202   17.7528 H   0  0  0  0  0  0  0  0  0  0  0  0
    0.3108    1.1384   15.4594 H   0  0  0  0  0  0  0  0  0  0  0  0
    0.7564    1.5281   17.1166 H   0  0  0  0  0  0  0  0  0  0  0  0
   -1.5883    1.8382   16.6705 H   0  0  0  0  0  0  0  0  0  0  0  0
   -3.0811   -0.0221   16.6043 H   0  0  0  0  0  0  0  0  0  0  0  0
   -2.1153    0.1095   15.1505 H   0  0  0  0  0  0  0  0  0  0  0  0
   -2.1836   -2.2023   15.8651 H   0  0  0  0  0  0  0  0  0  0  0  0
   -1.6320   -1.8375   17.4861 H   0  0  0  0  0  0  0  0  0  0  0  0
  1  2  1  0
  2  3  2  0
  2  4  2  0
  4  5  1  0
  5  6  2  0
  5  7  2  0
  5  8  1  0
  8  9  2  0
  9 10  1  0
 10 11  2  0
 11 12  1  0
 12 13  1  0
 13 14  1  0
 14 15  1  0
 15 16  1  0
 16 17  1  0
  2 18  1  0
 18 19  1  0
 19 20  1  0
 20 21  1  0
 21 22  1  0
 22 23  1  0
 12  8  1  0
 17 13  1  0
 23 18  1  0
  1 24  1  0
  1 25  1  0
  1 26  1  0
  9 27  1  0
 10 28  1  0
 13 29  1  0
 14 30  1  0
 14 31  1  0
 15 32  1  0
 15 33  1  0
 16 34  1  0
 16 35  1  0
 17 36  1  0
 17 37  1  0
 18 38  1  0
 19 39  1  0
 19 40  1  0
 20 41  1  0
 20 42  1  0
 21 43  1  0
 22 44  1  0
 22 45  1  0
 23 46  1  0
 23 47  1  0
M  END
>  <Energy>  (1059) 
-49.237509675326905

>  <compound_id>  (1059) 
8600

>  <target_id>  (1059) 
1

>  <reference_id>  (1059) 
81

>  <inspiration_ids>  (1059) 
[81, 44]

>  <energy_score>  (1059) 
-14.371641673552148

>  <distance_score>  (1059) 
10.60123739180326

>  <path>  (1059) 
/opt/xchem-fragalysis-2/maxwin/BulkDock/SCRATCH/511016/C8600-P81/C8600-P81.minimised.mol

>  <scratch_subdir>  (1059) 
/opt/xchem-fragalysis-2/maxwin/BulkDock/SCRATCH/511016/C8600-P81

>  <fragmenstein_runtime>  (1059) 
11.060232162475586

>  <fragmenstein_outcome>  (1059) 
too moved

>  <fragmenstein_mode>  (1059) 
expansion

>  <fragmenstein_error>  (1059) 


$$$$
C8600-P44
     RDKit          3D

 47 49  0  0  0  0  0  0  0  0999 V2000
    7.0195   -0.9424   20.2097 C   0  0  0  0  0  0  0  0  0  0  0  0
    5.9871   -2.7654   21.0367 S   0  0  0  0  0  0  0  0  0  0  0  0
    5.1169   -3.3150   20.0623 O   0  0  0  0  0  0  0  0  0  0  0  0
    7.5799   -3.8100   21.0541 N   0  0  0  0  0  0  0  0  0  0  0  0
    7.6423   -5.5127   21.0156 S   0  0  0  0  0  0  0  0  0  0  0  0
    7.1997   -6.2072   22.2312 O   0  0  0  0  0  0  0  0  0  0  0  0
    7.3145   -6.1100   19.7343 O   0  0  0  0  0  0  0  0  0  0  0  0
    9.3368   -6.4882   21.1813 C   0  0  0  0  0  0  0  0  0  0  0  0
    9.1395   -7.8860   21.0098 C   0  0  0  0  0  0  0  0  0  0  0  0
   10.2480   -8.5514   21.4682 C   0  0  0  0  0  0  0  0  0  0  0  0
   11.1778   -7.6963   21.8311 N   0  0  0  0  0  0  0  0  0  0  0  0
   10.6088   -6.4397   21.7997 N   0  0  0  0  0  0  0  0  0  0  0  0
   11.4878   -5.5602   22.5546 C   0  0  0  0  0  0  0  0  0  0  0  0
   12.1189   -4.2869   22.0117 C   0  0  0  0  0  0  0  0  0  0  0  0
   12.8470   -3.7416   23.2391 C   0  0  0  0  0  0  0  0  0  0  0  0
   11.8626   -3.9911   24.3783 C   0  0  0  0  0  0  0  0  0  0  0  0
   11.2007   -5.3328   24.0530 C   0  0  0  0  0  0  0  0  0  0  0  0
    5.1377   -2.1652   23.2095 C   0  0  0  0  0  0  0  0  0  0  0  0
    4.8476   -0.7159   23.9810 C   0  0  0  0  0  0  0  0  0  0  0  0
    5.3236   -0.3130   25.3996 C   0  0  0  0  0  0  0  0  0  0  0  0
    5.0912   -1.3848   26.3498 N   0  0  0  0  0  0  0  0  0  0  0  0
    5.9120   -2.5089   25.9228 C   0  0  0  0  0  0  0  0  0  0  0  0
    5.3693   -3.1238   24.6201 C   0  0  0  0  0  0  0  0  0  0  0  0
    6.1265   -0.7920   20.7533 H   0  0  0  0  0  0  0  0  0  0  0  0
    6.8283    0.1243   19.9619 H   0  0  0  0  0  0  0  0  0  0  0  0
    7.0829   -0.9443   19.1301 H   0  0  0  0  0  0  0  0  0  0  0  0
    8.2176   -8.3396   20.6667 H   0  0  0  0  0  0  0  0  0  0  0  0
   10.4423   -9.6144   21.5283 H   0  0  0  0  0  0  0  0  0  0  0  0
   12.4117   -6.1695   22.6203 H   0  0  0  0  0  0  0  0  0  0  0  0
   12.8029   -4.4756   21.1782 H   0  0  0  0  0  0  0  0  0  0  0  0
   11.3898   -3.5629   21.6903 H   0  0  0  0  0  0  0  0  0  0  0  0
   13.7723   -4.3046   23.4119 H   0  0  0  0  0  0  0  0  0  0  0  0
   13.1129   -2.6865   23.1385 H   0  0  0  0  0  0  0  0  0  0  0  0
   12.3569   -4.0025   25.3542 H   0  0  0  0  0  0  0  0  0  0  0  0
   11.1073   -3.1978   24.3974 H   0  0  0  0  0  0  0  0  0  0  0  0
   10.1457   -5.3415   24.3326 H   0  0  0  0  0  0  0  0  0  0  0  0
   11.6692   -6.1324   24.6416 H   0  0  0  0  0  0  0  0  0  0  0  0
    4.0630   -2.1965   22.9752 H   0  0  0  0  0  0  0  0  0  0  0  0
    4.9865    0.1457   23.3519 H   0  0  0  0  0  0  0  0  0  0  0  0
    3.8047   -0.8241   24.2877 H   0  0  0  0  0  0  0  0  0  0  0  0
    6.3671    0.0144   25.4391 H   0  0  0  0  0  0  0  0  0  0  0  0
    4.7381    0.5589   25.7194 H   0  0  0  0  0  0  0  0  0  0  0  0
    5.4004   -1.0824   27.2739 H   0  0  0  0  0  0  0  0  0  0  0  0
    6.9596   -2.1997   25.8704 H   0  0  0  0  0  0  0  0  0  0  0  0
    5.8621   -3.2780   26.7032 H   0  0  0  0  0  0  0  0  0  0  0  0
    5.8104   -4.1076   24.4247 H   0  0  0  0  0  0  0  0  0  0  0  0
    4.3430   -3.3836   24.9489 H   0  0  0  0  0  0  0  0  0  0  0  0
  1  2  1  0
  2  3  2  0
  2  4  2  0
  4  5  1  0
  5  6  2  0
  5  7  2  0
  5  8  1  0
  8  9  2  0
  9 10  1  0
 10 11  2  0
 11 12  1  0
 12 13  1  0
 13 14  1  0
 14 15  1  0
 15 16  1  0
 16 17  1  0
  2 18  1  0
 18 19  1  0
 19 20  1  0
 20 21  1  0
 21 22  1  0
 22 23  1  0
 12  8  1  0
 17 13  1  0
 23 18  1  0
  1 24  1  0
  1 25  1  0
  1 26  1  0
  9 27  1  0
 10 28  1  0
 13 29  1  0
 14 30  1  0
 14 31  1  0
 15 32  1  0
 15 33  1  0
 16 34  1  0
 16 35  1  0
 17 36  1  0
 17 37  1  0
 18 38  1  0
 19 39  1  0
 19 40  1  0
 20 41  1  0
 20 42  1  0
 21 43  1  0
 22 44  1  0
 22 45  1  0
 23 46  1  0
 23 47  1  0
M  END
>  <Energy>  (1060) 
308.47145016639337

>  <compound_id>  (1060) 
8600

>  <target_id>  (1060) 
1

>  <reference_id>  (1060) 
44

>  <inspiration_ids>  (1060) 
[81, 44]

>  <energy_score>  (1060) 
343.33731816817277

>  <distance_score>  (1060) 
8.872369687098917

>  <path>  (1060) 
/opt/xchem-fragalysis-2/maxwin/BulkDock/SCRATCH/511016/C8600-P44/C8600-P44.minimised.mol

>  <scratch_subdir>  (1060) 
/opt/xchem-fragalysis-2/maxwin/BulkDock/SCRATCH/511016/C8600-P44

>  <fragmenstein_runtime>  (1060) 
9.857588052749634

>  <fragmenstein_outcome>  (1060) 
too moved

>  <fragmenstein_mode>  (1060) 
expansion

>  <fragmenstein_error>  (1060) 


$$$$
C8601-P81
     RDKit          3D

 50 52  0  0  0  0  0  0  0  0999 V2000
    7.0891    2.8370   21.9719 C   0  0  0  0  0  0  0  0  0  0  0  0
    7.2773    1.5525   21.1987 N   0  0  0  0  0  0  0  0  0  0  0  0
    5.4400    1.2138   22.0213 C   0  0  0  0  0  0  0  0  0  0  0  0
    3.7361    2.0284   22.8262 C   0  0  0  0  0  0  0  0  0  0  0  0
    2.4835    2.6074   21.9941 C   0  0  0  0  0  0  0  0  0  0  0  0
    1.4614    3.4267   22.8546 C   0  0  0  0  0  0  0  0  0  0  0  0
    2.0301    4.0111   24.0639 N   0  0  0  0  0  0  0  0  0  0  0  0
    2.5765    3.0331   24.9963 C   0  0  0  0  0  0  0  0  0  0  0  0
    3.2011    1.7857   24.3255 C   0  0  0  0  0  0  0  0  0  0  0  0
    7.4006    1.3486   19.4532 C   0  0  0  0  0  0  0  0  0  0  0  0
    7.2631    2.1709   18.5345 O   0  0  0  0  0  0  0  0  0  0  0  0
    7.6058   -0.1810   18.8196 C   0  0  0  0  0  0  0  0  0  0  0  0
    8.3475    0.0439   17.1877 C   0  0  0  0  0  0  0  0  0  0  0  0
    8.2088   -0.7230   15.9871 C   0  0  0  0  0  0  0  0  0  0  0  0
    9.2707   -0.3783   15.1894 C   0  0  0  0  0  0  0  0  0  0  0  0
    9.9098    0.6342   15.8149 N   0  0  0  0  0  0  0  0  0  0  0  0
   11.1294    1.3121   15.4050 C   0  0  0  0  0  0  0  0  0  0  0  0
   12.3661    0.4026   15.5160 C   0  0  0  0  0  0  0  0  0  0  0  0
   12.7962    0.1357   14.0799 C   0  0  0  0  0  0  0  0  0  0  0  0
   12.4628    1.4356   13.3702 C   0  0  0  0  0  0  0  0  0  0  0  0
   11.1090    1.8205   13.9513 C   0  0  0  0  0  0  0  0  0  0  0  0
    9.4098    0.8598   17.0266 N   0  0  0  0  0  0  0  0  0  0  0  0
    8.0253    3.1277   22.4668 H   0  0  0  0  0  0  0  0  0  0  0  0
    7.1995    3.5603   21.1708 H   0  0  0  0  0  0  0  0  0  0  0  0
    6.2445    3.5010   22.0618 H   0  0  0  0  0  0  0  0  0  0  0  0
    6.0211    1.4437   22.7525 H   0  0  0  0  0  0  0  0  0  0  0  0
    5.2355    0.1457   21.8591 H   0  0  0  0  0  0  0  0  0  0  0  0
    4.0189    3.0964   22.9989 H   0  0  0  0  0  0  0  0  0  0  0  0
    2.0262    1.8222   21.4217 H   0  0  0  0  0  0  0  0  0  0  0  0
    2.7685    3.3439   21.2356 H   0  0  0  0  0  0  0  0  0  0  0  0
    1.0945    4.2497   22.2273 H   0  0  0  0  0  0  0  0  0  0  0  0
    0.5571    2.8726   23.1147 H   0  0  0  0  0  0  0  0  0  0  0  0
    1.3521    4.6134   24.5285 H   0  0  0  0  0  0  0  0  0  0  0  0
    3.3151    3.5411   25.6239 H   0  0  0  0  0  0  0  0  0  0  0  0
    1.7830    2.7013   25.6783 H   0  0  0  0  0  0  0  0  0  0  0  0
    2.3611    1.1482   24.2843 H   0  0  0  0  0  0  0  0  0  0  0  0
    3.8864    1.2582   24.9972 H   0  0  0  0  0  0  0  0  0  0  0  0
    6.6739   -0.6758   18.6509 H   0  0  0  0  0  0  0  0  0  0  0  0
    8.1834   -0.8007   19.4716 H   0  0  0  0  0  0  0  0  0  0  0  0
    7.4991   -1.4977   15.7428 H   0  0  0  0  0  0  0  0  0  0  0  0
    9.6196   -0.7508   14.2489 H   0  0  0  0  0  0  0  0  0  0  0  0
   11.2518    2.1672   16.0831 H   0  0  0  0  0  0  0  0  0  0  0  0
   13.1657    0.9447   16.0363 H   0  0  0  0  0  0  0  0  0  0  0  0
   12.1890   -0.5273   16.0662 H   0  0  0  0  0  0  0  0  0  0  0  0
   13.8573   -0.1192   14.0061 H   0  0  0  0  0  0  0  0  0  0  0  0
   12.2141   -0.6908   13.6556 H   0  0  0  0  0  0  0  0  0  0  0  0
   12.4289    1.3207   12.2829 H   0  0  0  0  0  0  0  0  0  0  0  0
   13.2088    2.2020   13.6109 H   0  0  0  0  0  0  0  0  0  0  0  0
   10.9485    2.9025   13.9052 H   0  0  0  0  0  0  0  0  0  0  0  0
   10.3183    1.3527   13.3566 H   0  0  0  0  0  0  0  0  0  0  0  0
  1  2  1  0
  2  3  1  0
  3  4  1  0
  4  5  1  0
  5  6  1  0
  6  7  1  0
  7  8  1  0
  8  9  1  0
  2 10  1  0
 10 11  2  0
 10 12  1  0
 12 13  1  0
 13 14  1  0
 14 15  2  0
 15 16  1  0
 16 17  1  0
 17 18  1  0
 18 19  1  0
 19 20  1  0
 20 21  1  0
 16 22  1  0
  9  4  1  0
 22 13  2  0
 21 17  1  0
  1 23  1  0
  1 24  1  0
  1 25  1  0
  3 26  1  0
  3 27  1  0
  4 28  1  0
  5 29  1  0
  5 30  1  0
  6 31  1  0
  6 32  1  0
  7 33  1  0
  8 34  1  0
  8 35  1  0
  9 36  1  0
  9 37  1  0
 12 38  1  0
 12 39  1  0
 14 40  1  0
 15 41  1  0
 17 42  1  0
 18 43  1  0
 18 44  1  0
 19 45  1  0
 19 46  1  0
 20 47  1  0
 20 48  1  0
 21 49  1  0
 21 50  1  0
M  END
>  <Energy>  (1061) 
444.56030518552194

>  <compound_id>  (1061) 
8601

>  <target_id>  (1061) 
1

>  <reference_id>  (1061) 
81

>  <inspiration_ids>  (1061) 
[81, 44]

>  <energy_score>  (1061) 
374.1923938080903

>  <distance_score>  (1061) 
5.853745847726654

>  <path>  (1061) 
/opt/xchem-fragalysis-2/maxwin/BulkDock/SCRATCH/511016/C8601-P81/C8601-P81.minimised.mol

>  <scratch_subdir>  (1061) 
/opt/xchem-fragalysis-2/maxwin/BulkDock/SCRATCH/511016/C8601-P81

>  <fragmenstein_runtime>  (1061) 
8.365208864212036

>  <fragmenstein_outcome>  (1061) 
too moved

>  <fragmenstein_mode>  (1061) 
expansion

>  <fragmenstein_error>  (1061) 


$$$$
C8601-P44
     RDKit          3D

 50 52  0  0  0  0  0  0  0  0999 V2000
    1.5085    4.8531   19.3504 C   0  0  0  0  0  0  0  0  0  0  0  0
    2.9442    5.1391   19.5620 N   0  0  0  0  0  0  0  0  0  0  0  0
    2.4151    5.5962   20.9602 C   0  0  0  0  0  0  0  0  0  0  0  0
    1.8613    4.5645   22.0430 C   0  0  0  0  0  0  0  0  0  0  0  0
    0.3169    4.6086   22.2153 C   0  0  0  0  0  0  0  0  0  0  0  0
   -0.1697    4.4971   23.6676 C   0  0  0  0  0  0  0  0  0  0  0  0
    0.5714    3.4858   24.4099 N   0  0  0  0  0  0  0  0  0  0  0  0
    2.0045    3.7903   24.4731 C   0  0  0  0  0  0  0  0  0  0  0  0
    2.5091    4.7918   23.4225 C   0  0  0  0  0  0  0  0  0  0  0  0
    3.7946    6.1580   18.9929 C   0  0  0  0  0  0  0  0  0  0  0  0
    3.5277    7.0877   18.2712 O   0  0  0  0  0  0  0  0  0  0  0  0
    5.2798    5.8945   19.3225 C   0  0  0  0  0  0  0  0  0  0  0  0
    6.0879    5.3084   18.1777 C   0  0  0  0  0  0  0  0  0  0  0  0
    5.6820    5.0121   16.8503 C   0  0  0  0  0  0  0  0  0  0  0  0
    6.7644    4.4145   16.2547 C   0  0  0  0  0  0  0  0  0  0  0  0
    7.7318    4.3481   17.2108 N   0  0  0  0  0  0  0  0  0  0  0  0
    9.0775    3.8150   17.0668 C   0  0  0  0  0  0  0  0  0  0  0  0
    9.9560    4.7124   16.1812 C   0  0  0  0  0  0  0  0  0  0  0  0
   10.0417    3.9845   14.8472 C   0  0  0  0  0  0  0  0  0  0  0  0
   10.0913    2.5215   15.2487 C   0  0  0  0  0  0  0  0  0  0  0  0
    9.1250    2.4141   16.4247 C   0  0  0  0  0  0  0  0  0  0  0  0
    7.3669    4.9303   18.3759 N   0  0  0  0  0  0  0  0  0  0  0  0
    0.8098    5.6998   19.4175 H   0  0  0  0  0  0  0  0  0  0  0  0
    1.4681    4.6274   18.2734 H   0  0  0  0  0  0  0  0  0  0  0  0
    1.1746    3.9126   19.7965 H   0  0  0  0  0  0  0  0  0  0  0  0
    1.8208    6.5254   20.9031 H   0  0  0  0  0  0  0  0  0  0  0  0
    3.3432    5.9799   21.4138 H   0  0  0  0  0  0  0  0  0  0  0  0
    2.1341    3.5503   21.7315 H   0  0  0  0  0  0  0  0  0  0  0  0
   -0.0926    5.5323   21.7901 H   0  0  0  0  0  0  0  0  0  0  0  0
   -0.1197    3.7838   21.6386 H   0  0  0  0  0  0  0  0  0  0  0  0
   -0.0908    5.4690   24.1705 H   0  0  0  0  0  0  0  0  0  0  0  0
   -1.2338    4.2350   23.6653 H   0  0  0  0  0  0  0  0  0  0  0  0
    0.2009    3.4272   25.3599 H   0  0  0  0  0  0  0  0  0  0  0  0
    2.2514    4.1787   25.4684 H   0  0  0  0  0  0  0  0  0  0  0  0
    2.5511    2.8469   24.3628 H   0  0  0  0  0  0  0  0  0  0  0  0
    3.5996    4.7025   23.3457 H   0  0  0  0  0  0  0  0  0  0  0  0
    2.3001    5.8156   23.7598 H   0  0  0  0  0  0  0  0  0  0  0  0
    5.3526    5.2470   20.2008 H   0  0  0  0  0  0  0  0  0  0  0  0
    5.7207    6.8567   19.6119 H   0  0  0  0  0  0  0  0  0  0  0  0
    4.7165    5.1909   16.3963 H   0  0  0  0  0  0  0  0  0  0  0  0
    6.8952    4.0146   15.2627 H   0  0  0  0  0  0  0  0  0  0  0  0
    9.4918    3.7737   18.0809 H   0  0  0  0  0  0  0  0  0  0  0  0
    9.5737    5.7318   16.0649 H   0  0  0  0  0  0  0  0  0  0  0  0
   10.9602    4.7858   16.6152 H   0  0  0  0  0  0  0  0  0  0  0  0
   10.9201    4.2846   14.2686 H   0  0  0  0  0  0  0  0  0  0  0  0
    9.1514    4.1863   14.2417 H   0  0  0  0  0  0  0  0  0  0  0  0
   11.1049    2.2554   15.5652 H   0  0  0  0  0  0  0  0  0  0  0  0
    9.8187    1.8533   14.4268 H   0  0  0  0  0  0  0  0  0  0  0  0
    8.1462    2.0825   16.0661 H   0  0  0  0  0  0  0  0  0  0  0  0
    9.4666    1.6589   17.1404 H   0  0  0  0  0  0  0  0  0  0  0  0
  1  2  1  0
  2  3  1  0
  3  4  1  0
  4  5  1  0
  5  6  1  0
  6  7  1  0
  7  8  1  0
  8  9  1  0
  2 10  1  0
 10 11  2  0
 10 12  1  0
 12 13  1  0
 13 14  1  0
 14 15  2  0
 15 16  1  0
 16 17  1  0
 17 18  1  0
 18 19  1  0
 19 20  1  0
 20 21  1  0
 16 22  1  0
  9  4  1  0
 22 13  2  0
 21 17  1  0
  1 23  1  0
  1 24  1  0
  1 25  1  0
  3 26  1  0
  3 27  1  0
  4 28  1  0
  5 29  1  0
  5 30  1  0
  6 31  1  0
  6 32  1  0
  7 33  1  0
  8 34  1  0
  8 35  1  0
  9 36  1  0
  9 37  1  0
 12 38  1  0
 12 39  1  0
 14 40  1  0
 15 41  1  0
 17 42  1  0
 18 43  1  0
 18 44  1  0
 19 45  1  0
 19 46  1  0
 20 47  1  0
 20 48  1  0
 21 49  1  0
 21 50  1  0
M  END
>  <Energy>  (1062) 
108.44970437624424

>  <compound_id>  (1062) 
8601

>  <target_id>  (1062) 
1

>  <reference_id>  (1062) 
44

>  <inspiration_ids>  (1062) 
[81, 44]

>  <energy_score>  (1062) 
38.08179299881354

>  <distance_score>  (1062) 
7.56154020415853

>  <path>  (1062) 
/opt/xchem-fragalysis-2/maxwin/BulkDock/SCRATCH/511016/C8601-P44/C8601-P44.minimised.mol

>  <scratch_subdir>  (1062) 
/opt/xchem-fragalysis-2/maxwin/BulkDock/SCRATCH/511016/C8601-P44

>  <fragmenstein_runtime>  (1062) 
8.161740064620972

>  <fragmenstein_outcome>  (1062) 
too moved

>  <fragmenstein_mode>  (1062) 
expansion

>  <fragmenstein_error>  (1062) 


$$$$
C8602-P81
     RDKit          3D

 48 50  0  0  0  0  0  0  0  0999 V2000
    2.3188    7.3397   21.0806 C   0  0  0  0  0  0  0  0  0  0  0  0
    3.0710    6.3795   20.2564 N   0  0  0  0  0  0  0  0  0  0  0  0
    4.4822    6.1459   20.1452 C   0  0  0  0  0  0  0  0  0  0  0  0
    5.4064    6.6134   20.7654 O   0  0  0  0  0  0  0  0  0  0  0  0
    4.8953    5.2023   18.9427 C   0  0  0  0  0  0  0  0  0  0  0  0
    4.0911    4.5114   18.3915 O   0  0  0  0  0  0  0  0  0  0  0  0
    6.2996    5.4286   18.6627 N   0  0  0  0  0  0  0  0  0  0  0  0
    7.1412    4.8482   17.7392 C   0  0  0  0  0  0  0  0  0  0  0  0
    6.9307    3.8538   16.7611 C   0  0  0  0  0  0  0  0  0  0  0  0
    8.0484    3.5460   16.0860 N   0  0  0  0  0  0  0  0  0  0  0  0
    8.9949    4.3065   16.6675 N   0  0  0  0  0  0  0  0  0  0  0  0
   10.3555    4.2498   16.1656 C   0  0  0  0  0  0  0  0  0  0  0  0
   11.4571    4.7466   17.1230 C   0  0  0  0  0  0  0  0  0  0  0  0
   12.6135    3.7528   17.0126 C   0  0  0  0  0  0  0  0  0  0  0  0
   12.3218    2.9325   15.7693 C   0  0  0  0  0  0  0  0  0  0  0  0
   10.8071    2.8372   15.7686 C   0  0  0  0  0  0  0  0  0  0  0  0
    8.4785    5.1572   17.6087 C   0  0  0  0  0  0  0  0  0  0  0  0
    2.4155    5.3332   21.2861 C   0  0  0  0  0  0  0  0  0  0  0  0
    0.8610    5.1244   21.3185 C   0  0  0  0  0  0  0  0  0  0  0  0
    0.4713    3.8867   22.1276 C   0  0  0  0  0  0  0  0  0  0  0  0
    1.0087    3.9608   23.4871 N   0  0  0  0  0  0  0  0  0  0  0  0
    2.4710    3.9399   23.4474 C   0  0  0  0  0  0  0  0  0  0  0  0
    3.0340    5.1663   22.7178 C   0  0  0  0  0  0  0  0  0  0  0  0
    1.2583    7.4167   20.8253 H   0  0  0  0  0  0  0  0  0  0  0  0
    2.5897    7.4714   22.1289 H   0  0  0  0  0  0  0  0  0  0  0  0
    2.6894    8.2992   20.6818 H   0  0  0  0  0  0  0  0  0  0  0  0
    6.6522    6.1475   19.2912 H   0  0  0  0  0  0  0  0  0  0  0  0
    6.0062    3.3488   16.5146 H   0  0  0  0  0  0  0  0  0  0  0  0
   10.3597    4.8873   15.2705 H   0  0  0  0  0  0  0  0  0  0  0  0
   11.1364    4.8195   18.1658 H   0  0  0  0  0  0  0  0  0  0  0  0
   11.7851    5.7476   16.8189 H   0  0  0  0  0  0  0  0  0  0  0  0
   13.5852    4.2531   16.9604 H   0  0  0  0  0  0  0  0  0  0  0  0
   12.6228    3.1007   17.8941 H   0  0  0  0  0  0  0  0  0  0  0  0
   12.6703    3.4615   14.8746 H   0  0  0  0  0  0  0  0  0  0  0  0
   12.8018    1.9502   15.7967 H   0  0  0  0  0  0  0  0  0  0  0  0
   10.4731    2.0946   16.5037 H   0  0  0  0  0  0  0  0  0  0  0  0
   10.4201    2.5378   14.7892 H   0  0  0  0  0  0  0  0  0  0  0  0
    9.0970    5.8826   18.1164 H   0  0  0  0  0  0  0  0  0  0  0  0
    2.7419    4.4067   20.7884 H   0  0  0  0  0  0  0  0  0  0  0  0
    0.4815    5.0343   20.2938 H   0  0  0  0  0  0  0  0  0  0  0  0
    0.3443    5.9706   21.7860 H   0  0  0  0  0  0  0  0  0  0  0  0
    0.8206    2.9839   21.6189 H   0  0  0  0  0  0  0  0  0  0  0  0
   -0.6207    3.8239   22.1833 H   0  0  0  0  0  0  0  0  0  0  0  0
    0.6835    3.1624   24.0272 H   0  0  0  0  0  0  0  0  0  0  0  0
    2.8484    3.9362   24.4758 H   0  0  0  0  0  0  0  0  0  0  0  0
    2.8209    3.0149   22.9758 H   0  0  0  0  0  0  0  0  0  0  0  0
    2.8374    6.0318   23.3578 H   0  0  0  0  0  0  0  0  0  0  0  0
    4.1230    5.0737   22.6492 H   0  0  0  0  0  0  0  0  0  0  0  0
  1  2  1  0
  2  3  1  0
  3  4  2  0
  3  5  1  0
  5  6  2  0
  5  7  1  0
  7  8  1  0
  8  9  1  0
  9 10  2  0
 10 11  1  0
 11 12  1  0
 12 13  1  0
 13 14  1  0
 14 15  1  0
 15 16  1  0
 11 17  1  0
  2 18  1  0
 18 19  1  0
 19 20  1  0
 20 21  1  0
 21 22  1  0
 22 23  1  0
 17  8  2  0
 23 18  1  0
 16 12  1  0
  1 24  1  0
  1 25  1  0
  1 26  1  0
  7 27  1  0
  9 28  1  0
 12 29  1  0
 13 30  1  0
 13 31  1  0
 14 32  1  0
 14 33  1  0
 15 34  1  0
 15 35  1  0
 16 36  1  0
 16 37  1  0
 17 38  1  0
 18 39  1  0
 19 40  1  0
 19 41  1  0
 20 42  1  0
 20 43  1  0
 21 44  1  0
 22 45  1  0
 22 46  1  0
 23 47  1  0
 23 48  1  0
M  END
>  <Energy>  (1063) 
132.83735154930105

>  <compound_id>  (1063) 
8602

>  <target_id>  (1063) 
1

>  <reference_id>  (1063) 
81

>  <inspiration_ids>  (1063) 
[81, 44]

>  <energy_score>  (1063) 
41.606337089900194

>  <distance_score>  (1063) 
7.386282079160169

>  <path>  (1063) 
/opt/xchem-fragalysis-2/maxwin/BulkDock/SCRATCH/511016/C8602-P81/C8602-P81.minimised.mol

>  <scratch_subdir>  (1063) 
/opt/xchem-fragalysis-2/maxwin/BulkDock/SCRATCH/511016/C8602-P81

>  <fragmenstein_runtime>  (1063) 
11.539797067642212

>  <fragmenstein_outcome>  (1063) 
too moved

>  <fragmenstein_mode>  (1063) 
expansion

>  <fragmenstein_error>  (1063) 


$$$$
C8602-P44
     RDKit          3D

 48 50  0  0  0  0  0  0  0  0999 V2000
    2.5050    7.4463   21.5491 C   0  0  0  0  0  0  0  0  0  0  0  0
    3.7821    6.8644   21.1020 N   0  0  0  0  0  0  0  0  0  0  0  0
    4.1319    6.2061   19.8746 C   0  0  0  0  0  0  0  0  0  0  0  0
    3.4475    5.8816   18.9364 O   0  0  0  0  0  0  0  0  0  0  0  0
    5.6880    5.9686   19.6888 C   0  0  0  0  0  0  0  0  0  0  0  0
    6.4675    6.3169   20.5279 O   0  0  0  0  0  0  0  0  0  0  0  0
    5.9035    5.3981   18.3758 N   0  0  0  0  0  0  0  0  0  0  0  0
    7.0602    5.0047   17.7408 C   0  0  0  0  0  0  0  0  0  0  0  0
    7.1688    4.3340   16.4955 C   0  0  0  0  0  0  0  0  0  0  0  0
    8.4321    4.2274   16.0727 N   0  0  0  0  0  0  0  0  0  0  0  0
    9.1403    4.8218   17.0547 N   0  0  0  0  0  0  0  0  0  0  0  0
   10.5131    5.2572   16.8239 C   0  0  0  0  0  0  0  0  0  0  0  0
   10.5534    6.7261   16.3485 C   0  0  0  0  0  0  0  0  0  0  0  0
   11.3385    6.7348   15.0403 C   0  0  0  0  0  0  0  0  0  0  0  0
   11.1736    5.3295   14.4919 C   0  0  0  0  0  0  0  0  0  0  0  0
   11.2730    4.4698   15.7427 C   0  0  0  0  0  0  0  0  0  0  0  0
    8.3638    5.1991   18.1255 C   0  0  0  0  0  0  0  0  0  0  0  0
    3.4198    5.7819   22.2234 C   0  0  0  0  0  0  0  0  0  0  0  0
    2.0757    4.9668   22.2324 C   0  0  0  0  0  0  0  0  0  0  0  0
    2.0672    3.8784   23.3082 C   0  0  0  0  0  0  0  0  0  0  0  0
    2.4019    4.3946   24.6339 N   0  0  0  0  0  0  0  0  0  0  0  0
    3.7499    4.9605   24.6297 C   0  0  0  0  0  0  0  0  0  0  0  0
    3.8801    6.1492   23.6702 C   0  0  0  0  0  0  0  0  0  0  0  0
    2.5298    8.4329   21.0584 H   0  0  0  0  0  0  0  0  0  0  0  0
    2.3566    7.7354   22.5914 H   0  0  0  0  0  0  0  0  0  0  0  0
    1.6382    7.0011   21.0449 H   0  0  0  0  0  0  0  0  0  0  0  0
    5.0048    5.3017   17.9030 H   0  0  0  0  0  0  0  0  0  0  0  0
    6.3743    3.9488   15.8683 H   0  0  0  0  0  0  0  0  0  0  0  0
   11.0220    5.1600   17.7895 H   0  0  0  0  0  0  0  0  0  0  0  0
   11.0378    7.3695   17.0914 H   0  0  0  0  0  0  0  0  0  0  0  0
    9.5483    7.1310   16.1775 H   0  0  0  0  0  0  0  0  0  0  0  0
   12.3970    6.9377   15.2429 H   0  0  0  0  0  0  0  0  0  0  0  0
   10.9769    7.4985   14.3457 H   0  0  0  0  0  0  0  0  0  0  0  0
   10.1926    5.2146   14.0174 H   0  0  0  0  0  0  0  0  0  0  0  0
   11.9426    5.0796   13.7553 H   0  0  0  0  0  0  0  0  0  0  0  0
   10.9036    3.4530   15.5790 H   0  0  0  0  0  0  0  0  0  0  0  0
   12.3294    4.3971   16.0288 H   0  0  0  0  0  0  0  0  0  0  0  0
    8.7947    5.6827   18.9903 H   0  0  0  0  0  0  0  0  0  0  0  0
    4.1506    5.0017   21.9597 H   0  0  0  0  0  0  0  0  0  0  0  0
    1.9058    4.5181   21.2466 H   0  0  0  0  0  0  0  0  0  0  0  0
    1.2128    5.6076   22.4496 H   0  0  0  0  0  0  0  0  0  0  0  0
    2.7514    3.0658   23.0416 H   0  0  0  0  0  0  0  0  0  0  0  0
    1.0625    3.4479   23.3606 H   0  0  0  0  0  0  0  0  0  0  0  0
    1.7288    5.1111   24.9079 H   0  0  0  0  0  0  0  0  0  0  0  0
    3.9970    5.2904   25.6450 H   0  0  0  0  0  0  0  0  0  0  0  0
    4.4815    4.1846   24.3719 H   0  0  0  0  0  0  0  0  0  0  0  0
    3.3128    6.9836   24.0934 H   0  0  0  0  0  0  0  0  0  0  0  0
    4.9266    6.4769   23.6399 H   0  0  0  0  0  0  0  0  0  0  0  0
  1  2  1  0
  2  3  1  0
  3  4  2  0
  3  5  1  0
  5  6  2  0
  5  7  1  0
  7  8  1  0
  8  9  1  0
  9 10  2  0
 10 11  1  0
 11 12  1  0
 12 13  1  0
 13 14  1  0
 14 15  1  0
 15 16  1  0
 11 17  1  0
  2 18  1  0
 18 19  1  0
 19 20  1  0
 20 21  1  0
 21 22  1  0
 22 23  1  0
 17  8  2  0
 23 18  1  0
 16 12  1  0
  1 24  1  0
  1 25  1  0
  1 26  1  0
  7 27  1  0
  9 28  1  0
 12 29  1  0
 13 30  1  0
 13 31  1  0
 14 32  1  0
 14 33  1  0
 15 34  1  0
 15 35  1  0
 16 36  1  0
 16 37  1  0
 17 38  1  0
 18 39  1  0
 19 40  1  0
 19 41  1  0
 20 42  1  0
 20 43  1  0
 21 44  1  0
 22 45  1  0
 22 46  1  0
 23 47  1  0
 23 48  1  0
M  END
>  <Energy>  (1064) 
137.28476626001341

>  <compound_id>  (1064) 
8602

>  <target_id>  (1064) 
1

>  <reference_id>  (1064) 
44

>  <inspiration_ids>  (1064) 
[81, 44]

>  <energy_score>  (1064) 
46.05375180061077

>  <distance_score>  (1064) 
7.579195264676577

>  <path>  (1064) 
/opt/xchem-fragalysis-2/maxwin/BulkDock/SCRATCH/511016/C8602-P44/C8602-P44.minimised.mol

>  <scratch_subdir>  (1064) 
/opt/xchem-fragalysis-2/maxwin/BulkDock/SCRATCH/511016/C8602-P44

>  <fragmenstein_runtime>  (1064) 
12.029624223709106

>  <fragmenstein_outcome>  (1064) 
too moved

>  <fragmenstein_mode>  (1064) 
expansion

>  <fragmenstein_error>  (1064) 


$$$$
C8603-P81
     RDKit          3D

 48 50  0  0  0  0  0  0  0  0999 V2000
    6.6334    3.3779   22.1734 O   0  0  0  0  0  0  0  0  0  0  0  0
    6.4860    2.2211   21.8492 C   0  0  0  0  0  0  0  0  0  0  0  0
    5.0185    1.3017   22.2663 N   0  0  0  0  0  0  0  0  0  0  0  0
    3.5080    1.8020   23.0511 C   0  0  0  0  0  0  0  0  0  0  0  0
    2.5567    2.4985   24.2388 C   0  0  0  0  0  0  0  0  0  0  0  0
    1.5900    3.5653   23.6601 C   0  0  0  0  0  0  0  0  0  0  0  0
    0.4398    3.8552   24.6316 C   0  0  0  0  0  0  0  0  0  0  0  0
    0.9238    4.2591   25.9463 N   0  0  0  0  0  0  0  0  0  0  0  0
    1.8316    3.2830   26.5362 C   0  0  0  0  0  0  0  0  0  0  0  0
    3.0301    2.9935   25.6171 C   0  0  0  0  0  0  0  0  0  0  0  0
    7.6745    1.7976   20.9506 C   0  0  0  0  0  0  0  0  0  0  0  0
    8.6938    1.7681   21.6396 O   0  0  0  0  0  0  0  0  0  0  0  0
    7.4521    1.5952   19.0464 N   0  0  0  0  0  0  0  0  0  0  0  0
    8.5772    1.4609   17.7509 C   0  0  0  0  0  0  0  0  0  0  0  0
    8.5247    0.5524   16.6515 C   0  0  0  0  0  0  0  0  0  0  0  0
    9.5165    0.7235   15.7752 N   0  0  0  0  0  0  0  0  0  0  0  0
   10.0950    1.8686   16.1867 N   0  0  0  0  0  0  0  0  0  0  0  0
   11.2742    2.4049   15.5172 C   0  0  0  0  0  0  0  0  0  0  0  0
   10.9742    2.9261   14.1091 C   0  0  0  0  0  0  0  0  0  0  0  0
   11.2935    1.7500   13.1988 C   0  0  0  0  0  0  0  0  0  0  0  0
   12.5407    1.1483   13.8253 C   0  0  0  0  0  0  0  0  0  0  0  0
   12.3910    1.3613   15.3331 C   0  0  0  0  0  0  0  0  0  0  0  0
    9.4556    2.4247   17.2651 C   0  0  0  0  0  0  0  0  0  0  0  0
    5.0707    0.3871   21.8273 H   0  0  0  0  0  0  0  0  0  0  0  0
    3.8968    1.2642   23.9191 H   0  0  0  0  0  0  0  0  0  0  0  0
    3.6615    2.8484   22.7953 H   0  0  0  0  0  0  0  0  0  0  0  0
    1.9142    1.6797   24.5267 H   0  0  0  0  0  0  0  0  0  0  0  0
    2.1456    4.4911   23.4607 H   0  0  0  0  0  0  0  0  0  0  0  0
    1.1758    3.2373   22.7004 H   0  0  0  0  0  0  0  0  0  0  0  0
   -0.1791    4.6596   24.2194 H   0  0  0  0  0  0  0  0  0  0  0  0
   -0.2053    2.9733   24.7246 H   0  0  0  0  0  0  0  0  0  0  0  0
    0.1384    4.4389   26.5718 H   0  0  0  0  0  0  0  0  0  0  0  0
    1.2923    2.3544   26.7601 H   0  0  0  0  0  0  0  0  0  0  0  0
    2.2022    3.6746   27.4899 H   0  0  0  0  0  0  0  0  0  0  0  0
    3.6429    2.2304   26.1102 H   0  0  0  0  0  0  0  0  0  0  0  0
    3.6100    3.9188   25.5165 H   0  0  0  0  0  0  0  0  0  0  0  0
    6.5458    1.5755   18.7937 H   0  0  0  0  0  0  0  0  0  0  0  0
    7.8295   -0.2528   16.4836 H   0  0  0  0  0  0  0  0  0  0  0  0
   11.6332    3.2259   16.1499 H   0  0  0  0  0  0  0  0  0  0  0  0
   11.6524    3.7563   13.8751 H   0  0  0  0  0  0  0  0  0  0  0  0
    9.9502    3.2878   13.9813 H   0  0  0  0  0  0  0  0  0  0  0  0
   10.4770    1.0206   13.2061 H   0  0  0  0  0  0  0  0  0  0  0  0
   11.4588    2.0594   12.1626 H   0  0  0  0  0  0  0  0  0  0  0  0
   13.4308    1.6787   13.4662 H   0  0  0  0  0  0  0  0  0  0  0  0
   12.6597    0.0912   13.5684 H   0  0  0  0  0  0  0  0  0  0  0  0
   13.3360    1.7338   15.7455 H   0  0  0  0  0  0  0  0  0  0  0  0
   12.1767    0.4144   15.8411 H   0  0  0  0  0  0  0  0  0  0  0  0
    9.7241    3.4130   17.6105 H   0  0  0  0  0  0  0  0  0  0  0  0
  1  2  2  0
  2  3  1  0
  3  4  1  0
  4  5  1  0
  5  6  1  0
  6  7  1  0
  7  8  1  0
  8  9  1  0
  9 10  1  0
  2 11  1  0
 11 12  2  0
 11 13  1  0
 13 14  1  0
 14 15  1  0
 15 16  2  0
 16 17  1  0
 17 18  1  0
 18 19  1  0
 19 20  1  0
 20 21  1  0
 21 22  1  0
 17 23  1  0
 10  5  1  0
 23 14  2  0
 22 18  1  0
  3 24  1  0
  4 25  1  0
  4 26  1  0
  5 27  1  0
  6 28  1  0
  6 29  1  0
  7 30  1  0
  7 31  1  0
  8 32  1  0
  9 33  1  0
  9 34  1  0
 10 35  1  0
 10 36  1  0
 13 37  1  0
 15 38  1  0
 18 39  1  0
 19 40  1  0
 19 41  1  0
 20 42  1  0
 20 43  1  0
 21 44  1  0
 21 45  1  0
 22 46  1  0
 22 47  1  0
 23 48  1  0
M  END
>  <Energy>  (1065) 
380.71638638327403

>  <compound_id>  (1065) 
8603

>  <target_id>  (1065) 
1

>  <reference_id>  (1065) 
81

>  <inspiration_ids>  (1065) 
[81, 44]

>  <energy_score>  (1065) 
284.39311901707805

>  <distance_score>  (1065) 
5.067550235133466

>  <path>  (1065) 
/opt/xchem-fragalysis-2/maxwin/BulkDock/SCRATCH/511016/C8603-P81/C8603-P81.minimised.mol

>  <scratch_subdir>  (1065) 
/opt/xchem-fragalysis-2/maxwin/BulkDock/SCRATCH/511016/C8603-P81

>  <fragmenstein_runtime>  (1065) 
9.199453592300415

>  <fragmenstein_outcome>  (1065) 
too moved

>  <fragmenstein_mode>  (1065) 
expansion

>  <fragmenstein_error>  (1065) 


$$$$
C8603-P44
     RDKit          3D

 48 50  0  0  0  0  0  0  0  0999 V2000
    5.9129   -2.2938   20.6579 O   0  0  0  0  0  0  0  0  0  0  0  0
    5.8328   -1.1383   20.9625 C   0  0  0  0  0  0  0  0  0  0  0  0
    4.9818   -0.6728   22.5312 N   0  0  0  0  0  0  0  0  0  0  0  0
    4.4132   -1.5077   23.6464 C   0  0  0  0  0  0  0  0  0  0  0  0
    4.1456   -0.6605   25.0055 C   0  0  0  0  0  0  0  0  0  0  0  0
    4.7495    0.7264   25.2348 C   0  0  0  0  0  0  0  0  0  0  0  0
    4.1539    1.3739   26.4976 C   0  0  0  0  0  0  0  0  0  0  0  0
    4.3298    0.5454   27.6872 N   0  0  0  0  0  0  0  0  0  0  0  0
    3.7934   -0.7989   27.5056 C   0  0  0  0  0  0  0  0  0  0  0  0
    4.4006   -1.4902   26.2788 C   0  0  0  0  0  0  0  0  0  0  0  0
    6.8430    0.2521   19.7586 C   0  0  0  0  0  0  0  0  0  0  0  0
    7.2183    1.2670   20.2364 O   0  0  0  0  0  0  0  0  0  0  0  0
    7.0636   -0.2249   18.4840 N   0  0  0  0  0  0  0  0  0  0  0  0
    7.8814    0.2907   17.3893 C   0  0  0  0  0  0  0  0  0  0  0  0
    8.5289    1.5607   17.4866 C   0  0  0  0  0  0  0  0  0  0  0  0
    9.3717    1.8011   16.4906 N   0  0  0  0  0  0  0  0  0  0  0  0
    9.3913    0.6544   15.8063 N   0  0  0  0  0  0  0  0  0  0  0  0
   10.6026    0.4312   15.0600 C   0  0  0  0  0  0  0  0  0  0  0  0
   11.0981   -0.9928   14.8321 C   0  0  0  0  0  0  0  0  0  0  0  0
   12.1486   -0.8405   13.7244 C   0  0  0  0  0  0  0  0  0  0  0  0
   12.0609    0.6117   13.2394 C   0  0  0  0  0  0  0  0  0  0  0  0
   10.6995    1.1089   13.7044 C   0  0  0  0  0  0  0  0  0  0  0  0
    8.3832   -0.2076   16.1853 C   0  0  0  0  0  0  0  0  0  0  0  0
    4.9275    0.3395   22.5854 H   0  0  0  0  0  0  0  0  0  0  0  0
    3.5336   -2.0545   23.3265 H   0  0  0  0  0  0  0  0  0  0  0  0
    5.1857   -2.2268   23.9209 H   0  0  0  0  0  0  0  0  0  0  0  0
    3.0921   -0.4010   24.9919 H   0  0  0  0  0  0  0  0  0  0  0  0
    5.8362    0.6574   25.3373 H   0  0  0  0  0  0  0  0  0  0  0  0
    4.5034    1.3908   24.4048 H   0  0  0  0  0  0  0  0  0  0  0  0
    4.6449    2.3391   26.6647 H   0  0  0  0  0  0  0  0  0  0  0  0
    3.0879    1.5836   26.3454 H   0  0  0  0  0  0  0  0  0  0  0  0
    3.8774    0.9928   28.4835 H   0  0  0  0  0  0  0  0  0  0  0  0
    2.7009   -0.7598   27.4174 H   0  0  0  0  0  0  0  0  0  0  0  0
    4.0207   -1.3927   28.3976 H   0  0  0  0  0  0  0  0  0  0  0  0
    3.9825   -2.4986   26.1912 H   0  0  0  0  0  0  0  0  0  0  0  0
    5.4817   -1.6197   26.4210 H   0  0  0  0  0  0  0  0  0  0  0  0
    6.5323   -1.0737   18.3717 H   0  0  0  0  0  0  0  0  0  0  0  0
    8.4058    2.3123   18.2572 H   0  0  0  0  0  0  0  0  0  0  0  0
   11.3850    0.9087   15.6661 H   0  0  0  0  0  0  0  0  0  0  0  0
   10.2980   -1.6700   14.5241 H   0  0  0  0  0  0  0  0  0  0  0  0
   11.5369   -1.4224   15.7389 H   0  0  0  0  0  0  0  0  0  0  0  0
   13.1544   -1.0593   14.0987 H   0  0  0  0  0  0  0  0  0  0  0  0
   11.9479   -1.5453   12.9141 H   0  0  0  0  0  0  0  0  0  0  0  0
   12.2053    0.7284   12.1660 H   0  0  0  0  0  0  0  0  0  0  0  0
   12.8508    1.1989   13.7260 H   0  0  0  0  0  0  0  0  0  0  0  0
    9.8951    0.7977   13.0355 H   0  0  0  0  0  0  0  0  0  0  0  0
   10.6712    2.2010   13.7753 H   0  0  0  0  0  0  0  0  0  0  0  0
    8.2334   -1.1341   15.6514 H   0  0  0  0  0  0  0  0  0  0  0  0
  1  2  2  0
  2  3  1  0
  3  4  1  0
  4  5  1  0
  5  6  1  0
  6  7  1  0
  7  8  1  0
  8  9  1  0
  9 10  1  0
  2 11  1  0
 11 12  2  0
 11 13  1  0
 13 14  1  0
 14 15  1  0
 15 16  2  0
 16 17  1  0
 17 18  1  0
 18 19  1  0
 19 20  1  0
 20 21  1  0
 21 22  1  0
 17 23  1  0
 10  5  1  0
 23 14  2  0
 22 18  1  0
  3 24  1  0
  4 25  1  0
  4 26  1  0
  5 27  1  0
  6 28  1  0
  6 29  1  0
  7 30  1  0
  7 31  1  0
  8 32  1  0
  9 33  1  0
  9 34  1  0
 10 35  1  0
 10 36  1  0
 13 37  1  0
 15 38  1  0
 18 39  1  0
 19 40  1  0
 19 41  1  0
 20 42  1  0
 20 43  1  0
 21 44  1  0
 21 45  1  0
 22 46  1  0
 22 47  1  0
 23 48  1  0
M  END
>  <Energy>  (1066) 
207.23196179836225

>  <compound_id>  (1066) 
8603

>  <target_id>  (1066) 
1

>  <reference_id>  (1066) 
44

>  <inspiration_ids>  (1066) 
[81, 44]

>  <energy_score>  (1066) 
110.90869443217025

>  <distance_score>  (1066) 
6.31129606228021

>  <path>  (1066) 
/opt/xchem-fragalysis-2/maxwin/BulkDock/SCRATCH/511016/C8603-P44/C8603-P44.minimised.mol

>  <scratch_subdir>  (1066) 
/opt/xchem-fragalysis-2/maxwin/BulkDock/SCRATCH/511016/C8603-P44

>  <fragmenstein_runtime>  (1066) 
7.333799123764038

>  <fragmenstein_outcome>  (1066) 
too moved

>  <fragmenstein_mode>  (1066) 
expansion

>  <fragmenstein_error>  (1066) 


$$$$
C8604-P81
     RDKit          3D

 51 53  0  0  0  0  0  0  0  0999 V2000
    2.7899    4.8408   21.7983 C   0  0  0  0  0  0  0  0  0  0  0  0
    2.4350    3.5798   21.0215 C   0  0  0  0  0  0  0  0  0  0  0  0
    2.7220    2.2053   21.7550 C   0  0  0  0  0  0  0  0  0  0  0  0
    3.9737    1.5543   22.4737 N   0  0  0  0  0  0  0  0  0  0  0  0
    5.2117    0.2792   21.7352 C   0  0  0  0  0  0  0  0  0  0  0  0
    6.6766   -0.0550   20.3222 C   0  0  0  0  0  0  0  0  0  0  0  0
    6.7041   -0.6269   18.8432 C   0  0  0  0  0  0  0  0  0  0  0  0
    7.8642   -0.4011   18.2568 C   0  0  0  0  0  0  0  0  0  0  0  0
    8.2017   -0.5274   19.5070 N   0  0  0  0  0  0  0  0  0  0  0  0
    7.4931    1.0184   19.6102 N   0  0  0  0  0  0  0  0  0  0  0  0
    7.8095    2.0746   18.1074 C   0  0  0  0  0  0  0  0  0  0  0  0
    6.9559    3.4056   17.8037 C   0  0  0  0  0  0  0  0  0  0  0  0
    7.6695    4.1124   16.6579 C   0  0  0  0  0  0  0  0  0  0  0  0
    9.1340    3.9363   16.9702 C   0  0  0  0  0  0  0  0  0  0  0  0
    9.2553    2.4773   17.4055 C   0  0  0  0  0  0  0  0  0  0  0  0
    3.3984    1.6159   24.1527 C   0  0  0  0  0  0  0  0  0  0  0  0
    3.8684    0.7408   25.4018 C   0  0  0  0  0  0  0  0  0  0  0  0
    2.9675    0.8382   26.6569 C   0  0  0  0  0  0  0  0  0  0  0  0
    2.0857    2.0033   26.7187 N   0  0  0  0  0  0  0  0  0  0  0  0
    2.7622    3.1740   26.1822 C   0  0  0  0  0  0  0  0  0  0  0  0
    2.8848    3.0552   24.6617 C   0  0  0  0  0  0  0  0  0  0  0  0
    2.1454    4.9559   22.6736 H   0  0  0  0  0  0  0  0  0  0  0  0
    3.8333    4.8512   22.1229 H   0  0  0  0  0  0  0  0  0  0  0  0
    2.6293    5.7209   21.1664 H   0  0  0  0  0  0  0  0  0  0  0  0
    1.3510    3.6154   20.8369 H   0  0  0  0  0  0  0  0  0  0  0  0
    2.8661    3.6397   20.0198 H   0  0  0  0  0  0  0  0  0  0  0  0
    2.2523    1.4495   21.1912 H   0  0  0  0  0  0  0  0  0  0  0  0
    2.0245    2.4183   22.5427 H   0  0  0  0  0  0  0  0  0  0  0  0
    5.0969   -0.7047   22.2066 H   0  0  0  0  0  0  0  0  0  0  0  0
    5.8827    1.0168   22.1740 H   0  0  0  0  0  0  0  0  0  0  0  0
    5.9070   -1.1047   18.2545 H   0  0  0  0  0  0  0  0  0  0  0  0
    8.3266   -0.4357   17.2711 H   0  0  0  0  0  0  0  0  0  0  0  0
    7.7152    1.4091   17.2545 H   0  0  0  0  0  0  0  0  0  0  0  0
    6.9217    4.1033   18.6468 H   0  0  0  0  0  0  0  0  0  0  0  0
    5.9261    3.2205   17.4856 H   0  0  0  0  0  0  0  0  0  0  0  0
    7.4217    3.6317   15.7071 H   0  0  0  0  0  0  0  0  0  0  0  0
    7.3858    5.1666   16.5877 H   0  0  0  0  0  0  0  0  0  0  0  0
    9.7666    4.1559   16.1048 H   0  0  0  0  0  0  0  0  0  0  0  0
    9.4340    4.6047   17.7849 H   0  0  0  0  0  0  0  0  0  0  0  0
   10.2031    2.3456   17.9017 H   0  0  0  0  0  0  0  0  0  0  0  0
    9.3716    1.8751   16.4883 H   0  0  0  0  0  0  0  0  0  0  0  0
    2.4156    1.2186   24.0541 H   0  0  0  0  0  0  0  0  0  0  0  0
    3.9666   -0.3197   25.1520 H   0  0  0  0  0  0  0  0  0  0  0  0
    4.8411    1.0474   25.7753 H   0  0  0  0  0  0  0  0  0  0  0  0
    2.3694   -0.0716   26.7697 H   0  0  0  0  0  0  0  0  0  0  0  0
    3.6212    0.8483   27.5400 H   0  0  0  0  0  0  0  0  0  0  0  0
    1.8267    2.1681   27.6913 H   0  0  0  0  0  0  0  0  0  0  0  0
    3.7416    3.3174   26.6540 H   0  0  0  0  0  0  0  0  0  0  0  0
    2.1722    4.0676   26.4165 H   0  0  0  0  0  0  0  0  0  0  0  0
    1.8772    3.2478   24.2717 H   0  0  0  0  0  0  0  0  0  0  0  0
    3.5047    3.8742   24.2887 H   0  0  0  0  0  0  0  0  0  0  0  0
  1  2  1  0
  2  3  1  0
  3  4  1  0
  4  5  1  0
  5  6  1  0
  6  7  2  0
  7  8  1  0
  8  9  2  0
  9 10  1  0
 10 11  1  0
 11 12  1  0
 12 13  1  0
 13 14  1  0
 14 15  1  0
  4 16  1  0
 16 17  1  0
 17 18  1  0
 18 19  1  0
 19 20  1  0
 20 21  1  0
 10  6  1  0
 15 11  1  0
 21 16  1  0
  1 22  1  0
  1 23  1  0
  1 24  1  0
  2 25  1  0
  2 26  1  0
  3 27  1  0
  3 28  1  0
  5 29  1  0
  5 30  1  0
  7 31  1  0
  8 32  1  0
 11 33  1  0
 12 34  1  0
 12 35  1  0
 13 36  1  0
 13 37  1  0
 14 38  1  0
 14 39  1  0
 15 40  1  0
 15 41  1  0
 16 42  1  0
 17 43  1  0
 17 44  1  0
 18 45  1  0
 18 46  1  0
 19 47  1  0
 20 48  1  0
 20 49  1  0
 21 50  1  0
 21 51  1  0
M  END
>  <Energy>  (1067) 
625.12256795174119

>  <compound_id>  (1067) 
8604

>  <target_id>  (1067) 
1

>  <reference_id>  (1067) 
81

>  <inspiration_ids>  (1067) 
[81, 44]

>  <energy_score>  (1067) 
554.5024851798732

>  <distance_score>  (1067) 
5.935303734573426

>  <path>  (1067) 
/opt/xchem-fragalysis-2/maxwin/BulkDock/SCRATCH/511016/C8604-P81/C8604-P81.minimised.mol

>  <scratch_subdir>  (1067) 
/opt/xchem-fragalysis-2/maxwin/BulkDock/SCRATCH/511016/C8604-P81

>  <fragmenstein_runtime>  (1067) 
6.152124643325806

>  <fragmenstein_outcome>  (1067) 
too moved

>  <fragmenstein_mode>  (1067) 
expansion

>  <fragmenstein_error>  (1067) 


$$$$
C8604-P44
     RDKit          3D

 51 53  0  0  0  0  0  0  0  0999 V2000
    5.0022    6.2864   23.7130 C   0  0  0  0  0  0  0  0  0  0  0  0
    4.9353    4.8326   24.1683 C   0  0  0  0  0  0  0  0  0  0  0  0
    4.2375    3.9367   23.1051 C   0  0  0  0  0  0  0  0  0  0  0  0
    4.2213    2.4572   23.2993 N   0  0  0  0  0  0  0  0  0  0  0  0
    4.9745    1.2949   22.2570 C   0  0  0  0  0  0  0  0  0  0  0  0
    6.5834    1.8789   20.9900 C   0  0  0  0  0  0  0  0  0  0  0  0
    7.2801    0.8856   19.7226 C   0  0  0  0  0  0  0  0  0  0  0  0
    8.2606    1.4648   18.9355 C   0  0  0  0  0  0  0  0  0  0  0  0
    8.4843    2.6560   19.4201 N   0  0  0  0  0  0  0  0  0  0  0  0
    7.2043    3.0300   19.7849 N   0  0  0  0  0  0  0  0  0  0  0  0
    6.9613    4.4365   19.2961 C   0  0  0  0  0  0  0  0  0  0  0  0
    5.8719    5.4177   19.7952 C   0  0  0  0  0  0  0  0  0  0  0  0
    5.3394    6.1332   18.5516 C   0  0  0  0  0  0  0  0  0  0  0  0
    6.4154    5.9547   17.4970 C   0  0  0  0  0  0  0  0  0  0  0  0
    6.9130    4.5404   17.7473 C   0  0  0  0  0  0  0  0  0  0  0  0
    4.0166    2.1242   24.7626 C   0  0  0  0  0  0  0  0  0  0  0  0
    2.6663    2.7231   25.2972 C   0  0  0  0  0  0  0  0  0  0  0  0
    2.2164    2.1781   26.6610 C   0  0  0  0  0  0  0  0  0  0  0  0
    3.3468    1.8101   27.5000 N   0  0  0  0  0  0  0  0  0  0  0  0
    4.1264    0.7316   26.8869 C   0  0  0  0  0  0  0  0  0  0  0  0
    4.1649    0.7119   25.3447 C   0  0  0  0  0  0  0  0  0  0  0  0
    4.0000    6.6815   23.5192 H   0  0  0  0  0  0  0  0  0  0  0  0
    5.4666    6.9035   24.4888 H   0  0  0  0  0  0  0  0  0  0  0  0
    5.5967    6.3911   22.8015 H   0  0  0  0  0  0  0  0  0  0  0  0
    4.4102    4.8308   25.1245 H   0  0  0  0  0  0  0  0  0  0  0  0
    5.9474    4.4738   24.3814 H   0  0  0  0  0  0  0  0  0  0  0  0
    3.1881    4.2544   23.0413 H   0  0  0  0  0  0  0  0  0  0  0  0
    4.6605    4.2579   22.1659 H   0  0  0  0  0  0  0  0  0  0  0  0
    4.2732    0.9143   21.5021 H   0  0  0  0  0  0  0  0  0  0  0  0
    5.0988    0.4478   22.9871 H   0  0  0  0  0  0  0  0  0  0  0  0
    7.0084   -0.1503   19.6360 H   0  0  0  0  0  0  0  0  0  0  0  0
    8.8575    1.0622   18.1329 H   0  0  0  0  0  0  0  0  0  0  0  0
    7.9123    4.9474   19.5355 H   0  0  0  0  0  0  0  0  0  0  0  0
    6.3262    6.1527   20.4707 H   0  0  0  0  0  0  0  0  0  0  0  0
    5.0408    4.9718   20.3283 H   0  0  0  0  0  0  0  0  0  0  0  0
    4.4115    5.6513   18.2199 H   0  0  0  0  0  0  0  0  0  0  0  0
    5.1175    7.1868   18.7453 H   0  0  0  0  0  0  0  0  0  0  0  0
    6.0296    6.0860   16.4821 H   0  0  0  0  0  0  0  0  0  0  0  0
    7.2254    6.6766   17.6534 H   0  0  0  0  0  0  0  0  0  0  0  0
    7.8945    4.3769   17.2896 H   0  0  0  0  0  0  0  0  0  0  0  0
    6.2207    3.8220   17.3012 H   0  0  0  0  0  0  0  0  0  0  0  0
    4.8290    2.6517   25.2786 H   0  0  0  0  0  0  0  0  0  0  0  0
    1.8673    2.5772   24.5641 H   0  0  0  0  0  0  0  0  0  0  0  0
    2.7429    3.8076   25.4030 H   0  0  0  0  0  0  0  0  0  0  0  0
    1.5493    1.3179   26.5652 H   0  0  0  0  0  0  0  0  0  0  0  0
    1.6245    2.9457   27.1734 H   0  0  0  0  0  0  0  0  0  0  0  0
    3.9457    2.6280   27.6202 H   0  0  0  0  0  0  0  0  0  0  0  0
    3.7425   -0.2327   27.2411 H   0  0  0  0  0  0  0  0  0  0  0  0
    5.1522    0.8018   27.2688 H   0  0  0  0  0  0  0  0  0  0  0  0
    5.1147    0.2562   25.0493 H   0  0  0  0  0  0  0  0  0  0  0  0
    3.3677    0.0578   24.9986 H   0  0  0  0  0  0  0  0  0  0  0  0
  1  2  1  0
  2  3  1  0
  3  4  1  0
  4  5  1  0
  5  6  1  0
  6  7  2  0
  7  8  1  0
  8  9  2  0
  9 10  1  0
 10 11  1  0
 11 12  1  0
 12 13  1  0
 13 14  1  0
 14 15  1  0
  4 16  1  0
 16 17  1  0
 17 18  1  0
 18 19  1  0
 19 20  1  0
 20 21  1  0
 10  6  1  0
 15 11  1  0
 21 16  1  0
  1 22  1  0
  1 23  1  0
  1 24  1  0
  2 25  1  0
  2 26  1  0
  3 27  1  0
  3 28  1  0
  5 29  1  0
  5 30  1  0
  7 31  1  0
  8 32  1  0
 11 33  1  0
 12 34  1  0
 12 35  1  0
 13 36  1  0
 13 37  1  0
 14 38  1  0
 14 39  1  0
 15 40  1  0
 15 41  1  0
 16 42  1  0
 17 43  1  0
 17 44  1  0
 18 45  1  0
 18 46  1  0
 19 47  1  0
 20 48  1  0
 20 49  1  0
 21 50  1  0
 21 51  1  0
M  END
>  <Energy>  (1068) 
326.33611167288421

>  <compound_id>  (1068) 
8604

>  <target_id>  (1068) 
1

>  <reference_id>  (1068) 
44

>  <inspiration_ids>  (1068) 
[81, 44]

>  <energy_score>  (1068) 
255.7160289010265

>  <distance_score>  (1068) 
6.531078728777379

>  <path>  (1068) 
/opt/xchem-fragalysis-2/maxwin/BulkDock/SCRATCH/511016/C8604-P44/C8604-P44.minimised.mol

>  <scratch_subdir>  (1068) 
/opt/xchem-fragalysis-2/maxwin/BulkDock/SCRATCH/511016/C8604-P44

>  <fragmenstein_runtime>  (1068) 
7.391097068786621

>  <fragmenstein_outcome>  (1068) 
too moved

>  <fragmenstein_mode>  (1068) 
expansion

>  <fragmenstein_error>  (1068) 


$$$$
C8605-P81
     RDKit          3D

 47 49  0  0  0  0  0  0  0  0999 V2000
    3.7939    6.3640   18.2990 O   0  0  0  0  0  0  0  0  0  0  0  0
    4.1517    5.6946   19.2280 C   0  0  0  0  0  0  0  0  0  0  0  0
    5.6681    5.5304   19.4772 C   0  0  0  0  0  0  0  0  0  0  0  0
    6.5287    5.0305   18.3456 C   0  0  0  0  0  0  0  0  0  0  0  0
    6.2019    4.2730   17.1957 C   0  0  0  0  0  0  0  0  0  0  0  0
    7.4025    4.0095   16.5793 C   0  0  0  0  0  0  0  0  0  0  0  0
    8.3570    4.6627   17.3015 N   0  0  0  0  0  0  0  0  0  0  0  0
    9.7822    4.7041   16.9994 C   0  0  0  0  0  0  0  0  0  0  0  0
   10.6216    5.6248   17.8948 C   0  0  0  0  0  0  0  0  0  0  0  0
   10.4838    7.0168   17.2805 C   0  0  0  0  0  0  0  0  0  0  0  0
   10.0634    6.8004   15.8281 C   0  0  0  0  0  0  0  0  0  0  0  0
   10.0721    5.2904   15.6129 C   0  0  0  0  0  0  0  0  0  0  0  0
    7.8617    5.2216   18.4278 N   0  0  0  0  0  0  0  0  0  0  0  0
    3.3858    5.0455   20.2775 N   0  0  0  0  0  0  0  0  0  0  0  0
    1.9667    5.0834   20.5824 C   0  0  0  0  0  0  0  0  0  0  0  0
    1.5223    4.2737   21.8306 C   0  0  0  0  0  0  0  0  0  0  0  0
   -0.0035    4.3990   22.0314 C   0  0  0  0  0  0  0  0  0  0  0  0
   -0.5026    3.7321   23.3158 C   0  0  0  0  0  0  0  0  0  0  0  0
    0.2397    4.1610   24.4940 N   0  0  0  0  0  0  0  0  0  0  0  0
    1.6778    3.9668   24.3468 C   0  0  0  0  0  0  0  0  0  0  0  0
    2.2232    4.7150   23.1262 C   0  0  0  0  0  0  0  0  0  0  0  0
    6.0178    6.5361   19.7526 H   0  0  0  0  0  0  0  0  0  0  0  0
    5.8700    4.9134   20.3567 H   0  0  0  0  0  0  0  0  0  0  0  0
    5.2253    3.9367   16.8725 H   0  0  0  0  0  0  0  0  0  0  0  0
    7.6394    3.4418   15.6962 H   0  0  0  0  0  0  0  0  0  0  0  0
   10.1295    3.6670   17.0730 H   0  0  0  0  0  0  0  0  0  0  0  0
   11.6737    5.3162   17.8399 H   0  0  0  0  0  0  0  0  0  0  0  0
   10.3400    5.6157   18.9515 H   0  0  0  0  0  0  0  0  0  0  0  0
    9.7209    7.6005   17.8080 H   0  0  0  0  0  0  0  0  0  0  0  0
   11.4255    7.5710   17.3505 H   0  0  0  0  0  0  0  0  0  0  0  0
   10.7321    7.3106   15.1277 H   0  0  0  0  0  0  0  0  0  0  0  0
    9.0549    7.2006   15.6708 H   0  0  0  0  0  0  0  0  0  0  0  0
    9.3641    4.9888   14.8353 H   0  0  0  0  0  0  0  0  0  0  0  0
   11.0724    4.9782   15.2864 H   0  0  0  0  0  0  0  0  0  0  0  0
    4.0161    4.4883   20.8539 H   0  0  0  0  0  0  0  0  0  0  0  0
    1.6978    6.1403   20.6934 H   0  0  0  0  0  0  0  0  0  0  0  0
    1.4443    4.7170   19.6913 H   0  0  0  0  0  0  0  0  0  0  0  0
    1.7666    3.2175   21.6548 H   0  0  0  0  0  0  0  0  0  0  0  0
   -0.2786    5.4620   22.0575 H   0  0  0  0  0  0  0  0  0  0  0  0
   -0.5252    3.9608   21.1719 H   0  0  0  0  0  0  0  0  0  0  0  0
   -0.4565    2.6452   23.2166 H   0  0  0  0  0  0  0  0  0  0  0  0
   -1.5603    3.9828   23.4553 H   0  0  0  0  0  0  0  0  0  0  0  0
   -0.1024    3.6935   25.3310 H   0  0  0  0  0  0  0  0  0  0  0  0
    1.9127    2.8985   24.2743 H   0  0  0  0  0  0  0  0  0  0  0  0
    2.1787    4.3428   25.2456 H   0  0  0  0  0  0  0  0  0  0  0  0
    2.0924    5.7955   23.2700 H   0  0  0  0  0  0  0  0  0  0  0  0
    3.3013    4.5347   23.0524 H   0  0  0  0  0  0  0  0  0  0  0  0
  1  2  2  0
  2  3  1  0
  3  4  1  0
  4  5  1  0
  5  6  2  0
  6  7  1  0
  7  8  1  0
  8  9  1  0
  9 10  1  0
 10 11  1  0
 11 12  1  0
  7 13  1  0
  2 14  1  0
 14 15  1  0
 15 16  1  0
 16 17  1  0
 17 18  1  0
 18 19  1  0
 19 20  1  0
 20 21  1  0
 13  4  2  0
 21 16  1  0
 12  8  1  0
  3 22  1  0
  3 23  1  0
  5 24  1  0
  6 25  1  0
  8 26  1  0
  9 27  1  0
  9 28  1  0
 10 29  1  0
 10 30  1  0
 11 31  1  0
 11 32  1  0
 12 33  1  0
 12 34  1  0
 14 35  1  0
 15 36  1  0
 15 37  1  0
 16 38  1  0
 17 39  1  0
 17 40  1  0
 18 41  1  0
 18 42  1  0
 19 43  1  0
 20 44  1  0
 20 45  1  0
 21 46  1  0
 21 47  1  0
M  END
>  <Energy>  (1069) 
24.70094016445783

>  <compound_id>  (1069) 
8605

>  <target_id>  (1069) 
1

>  <reference_id>  (1069) 
81

>  <inspiration_ids>  (1069) 
[81, 44]

>  <energy_score>  (1069) 
-30.215653981710062

>  <distance_score>  (1069) 
7.323540400281208

>  <path>  (1069) 
/opt/xchem-fragalysis-2/maxwin/BulkDock/SCRATCH/511016/C8605-P81/C8605-P81.minimised.mol

>  <scratch_subdir>  (1069) 
/opt/xchem-fragalysis-2/maxwin/BulkDock/SCRATCH/511016/C8605-P81

>  <fragmenstein_runtime>  (1069) 
12.220626592636108

>  <fragmenstein_outcome>  (1069) 
too moved

>  <fragmenstein_mode>  (1069) 
expansion

>  <fragmenstein_error>  (1069) 


$$$$
C8605-P44
     RDKit          3D

 47 49  0  0  0  0  0  0  0  0999 V2000
    7.4981    0.3090   19.6140 O   0  0  0  0  0  0  0  0  0  0  0  0
    7.2813    1.4629   20.0135 C   0  0  0  0  0  0  0  0  0  0  0  0
    7.9825    2.7019   19.3072 C   0  0  0  0  0  0  0  0  0  0  0  0
    8.5689    2.4977   17.9183 C   0  0  0  0  0  0  0  0  0  0  0  0
    8.7533    1.3531   17.1028 C   0  0  0  0  0  0  0  0  0  0  0  0
    9.4202    1.7840   15.9783 C   0  0  0  0  0  0  0  0  0  0  0  0
    9.5824    3.1282   16.1428 N   0  0  0  0  0  0  0  0  0  0  0  0
   10.2311    4.0771   15.2631 C   0  0  0  0  0  0  0  0  0  0  0  0
    9.7601    4.0569   13.8109 C   0  0  0  0  0  0  0  0  0  0  0  0
   10.8082    4.9011   13.1036 C   0  0  0  0  0  0  0  0  0  0  0  0
   12.1215    4.5360   13.7890 C   0  0  0  0  0  0  0  0  0  0  0  0
   11.7454    3.8993   15.1295 C   0  0  0  0  0  0  0  0  0  0  0  0
    9.0501    3.5851   17.2903 N   0  0  0  0  0  0  0  0  0  0  0  0
    6.1063    2.0787   21.3168 N   0  0  0  0  0  0  0  0  0  0  0  0
    4.7662    1.1565   22.3733 C   0  0  0  0  0  0  0  0  0  0  0  0
    3.9178    2.2325   23.4720 C   0  0  0  0  0  0  0  0  0  0  0  0
    4.2974    3.7168   23.6047 C   0  0  0  0  0  0  0  0  0  0  0  0
    3.3432    4.4397   24.5683 C   0  0  0  0  0  0  0  0  0  0  0  0
    3.4011    3.8626   25.9096 N   0  0  0  0  0  0  0  0  0  0  0  0
    3.0480    2.4501   25.8873 C   0  0  0  0  0  0  0  0  0  0  0  0
    3.9344    1.6538   24.9222 C   0  0  0  0  0  0  0  0  0  0  0  0
    7.2867    3.5406   19.2441 H   0  0  0  0  0  0  0  0  0  0  0  0
    8.8424    3.0131   19.9076 H   0  0  0  0  0  0  0  0  0  0  0  0
    8.4066    0.3556   17.3021 H   0  0  0  0  0  0  0  0  0  0  0  0
    9.7667    1.2597   15.1002 H   0  0  0  0  0  0  0  0  0  0  0  0
   10.0351    5.0790   15.6720 H   0  0  0  0  0  0  0  0  0  0  0  0
    8.7519    4.4644   13.6910 H   0  0  0  0  0  0  0  0  0  0  0  0
    9.7786    3.0419   13.3993 H   0  0  0  0  0  0  0  0  0  0  0  0
   10.8357    4.7131   12.0261 H   0  0  0  0  0  0  0  0  0  0  0  0
   10.5950    5.9663   13.2532 H   0  0  0  0  0  0  0  0  0  0  0  0
   12.7499    5.4222   13.9263 H   0  0  0  0  0  0  0  0  0  0  0  0
   12.6903    3.8223   13.1824 H   0  0  0  0  0  0  0  0  0  0  0  0
   12.0257    2.8398   15.1172 H   0  0  0  0  0  0  0  0  0  0  0  0
   12.2795    4.3736   15.9590 H   0  0  0  0  0  0  0  0  0  0  0  0
    6.1145    3.0991   21.3401 H   0  0  0  0  0  0  0  0  0  0  0  0
    4.1982    0.8326   21.5083 H   0  0  0  0  0  0  0  0  0  0  0  0
    5.0854    0.3246   23.0454 H   0  0  0  0  0  0  0  0  0  0  0  0
    2.8817    2.2381   23.1213 H   0  0  0  0  0  0  0  0  0  0  0  0
    5.3133    3.8120   24.0001 H   0  0  0  0  0  0  0  0  0  0  0  0
    4.2584    4.2393   22.6463 H   0  0  0  0  0  0  0  0  0  0  0  0
    2.3166    4.4155   24.1826 H   0  0  0  0  0  0  0  0  0  0  0  0
    3.6369    5.4935   24.6305 H   0  0  0  0  0  0  0  0  0  0  0  0
    2.7588    4.3660   26.5219 H   0  0  0  0  0  0  0  0  0  0  0  0
    1.9923    2.3520   25.6179 H   0  0  0  0  0  0  0  0  0  0  0  0
    3.1597    2.0389   26.8964 H   0  0  0  0  0  0  0  0  0  0  0  0
    4.9659    1.6601   25.2983 H   0  0  0  0  0  0  0  0  0  0  0  0
    3.6160    0.6078   24.9426 H   0  0  0  0  0  0  0  0  0  0  0  0
  1  2  2  0
  2  3  1  0
  3  4  1  0
  4  5  1  0
  5  6  2  0
  6  7  1  0
  7  8  1  0
  8  9  1  0
  9 10  1  0
 10 11  1  0
 11 12  1  0
  7 13  1  0
  2 14  1  0
 14 15  1  0
 15 16  1  0
 16 17  1  0
 17 18  1  0
 18 19  1  0
 19 20  1  0
 20 21  1  0
 13  4  2  0
 21 16  1  0
 12  8  1  0
  3 22  1  0
  3 23  1  0
  5 24  1  0
  6 25  1  0
  8 26  1  0
  9 27  1  0
  9 28  1  0
 10 29  1  0
 10 30  1  0
 11 31  1  0
 11 32  1  0
 12 33  1  0
 12 34  1  0
 14 35  1  0
 15 36  1  0
 15 37  1  0
 16 38  1  0
 17 39  1  0
 17 40  1  0
 18 41  1  0
 18 42  1  0
 19 43  1  0
 20 44  1  0
 20 45  1  0
 21 46  1  0
 21 47  1  0
M  END
>  <Energy>  (1070) 
155.9328473606918

>  <compound_id>  (1070) 
8605

>  <target_id>  (1070) 
1

>  <reference_id>  (1070) 
44

>  <inspiration_ids>  (1070) 
[81, 44]

>  <energy_score>  (1070) 
101.01625321452536

>  <distance_score>  (1070) 
6.427841978303271

>  <path>  (1070) 
/opt/xchem-fragalysis-2/maxwin/BulkDock/SCRATCH/511016/C8605-P44/C8605-P44.minimised.mol

>  <scratch_subdir>  (1070) 
/opt/xchem-fragalysis-2/maxwin/BulkDock/SCRATCH/511016/C8605-P44

>  <fragmenstein_runtime>  (1070) 
7.847994089126587

>  <fragmenstein_outcome>  (1070) 
too moved

>  <fragmenstein_mode>  (1070) 
expansion

>  <fragmenstein_error>  (1070) 


$$$$
C8606-P81
     RDKit          3D

 48 50  0  0  0  0  0  0  0  0999 V2000
    5.8230   -1.2213   17.9899 C   0  0  0  0  0  0  0  0  0  0  0  0
    7.0437   -0.4191   18.8863 C   0  0  0  0  0  0  0  0  0  0  0  0
    6.8402   -0.1445   20.5510 N   0  0  0  0  0  0  0  0  0  0  0  0
    5.2737    0.2843   21.7478 C   0  0  0  0  0  0  0  0  0  0  0  0
    3.9104    1.4666   22.7095 C   0  0  0  0  0  0  0  0  0  0  0  0
    3.5107    1.2473   24.4502 C   0  0  0  0  0  0  0  0  0  0  0  0
    3.1439    2.3055   25.5233 C   0  0  0  0  0  0  0  0  0  0  0  0
    2.8118    3.6142   25.0043 N   0  0  0  0  0  0  0  0  0  0  0  0
    2.1597    3.4994   23.7111 C   0  0  0  0  0  0  0  0  0  0  0  0
    3.1490    3.0512   22.6186 C   0  0  0  0  0  0  0  0  0  0  0  0
    8.1746    0.0880   17.4565 C   0  0  0  0  0  0  0  0  0  0  0  0
    8.5192   -0.5950   16.2207 C   0  0  0  0  0  0  0  0  0  0  0  0
    9.4009    0.0528   15.4621 N   0  0  0  0  0  0  0  0  0  0  0  0
    9.4684    1.2683   16.0162 N   0  0  0  0  0  0  0  0  0  0  0  0
   10.2789    2.2761   15.3504 C   0  0  0  0  0  0  0  0  0  0  0  0
   11.7287    2.3087   15.8316 C   0  0  0  0  0  0  0  0  0  0  0  0
   11.8185    3.4451   16.8451 C   0  0  0  0  0  0  0  0  0  0  0  0
   10.5414    4.2670   16.7096 C   0  0  0  0  0  0  0  0  0  0  0  0
    9.8151    3.7263   15.4864 C   0  0  0  0  0  0  0  0  0  0  0  0
    8.6371    1.3767   17.0893 C   0  0  0  0  0  0  0  0  0  0  0  0
    5.5942   -2.1744   18.4137 H   0  0  0  0  0  0  0  0  0  0  0  0
    6.1739   -1.2342   16.9809 H   0  0  0  0  0  0  0  0  0  0  0  0
    4.7423   -1.1503   17.9873 H   0  0  0  0  0  0  0  0  0  0  0  0
    7.1158    0.6553   19.0336 H   0  0  0  0  0  0  0  0  0  0  0  0
    7.4396    0.6961   20.6477 H   0  0  0  0  0  0  0  0  0  0  0  0
    5.1977   -0.7202   22.1862 H   0  0  0  0  0  0  0  0  0  0  0  0
    5.9215    1.0608   22.1652 H   0  0  0  0  0  0  0  0  0  0  0  0
    3.1153    1.1801   22.0136 H   0  0  0  0  0  0  0  0  0  0  0  0
    4.0645    0.4262   24.9198 H   0  0  0  0  0  0  0  0  0  0  0  0
    2.4968    0.9471   24.3493 H   0  0  0  0  0  0  0  0  0  0  0  0
    2.2797    1.9336   26.0944 H   0  0  0  0  0  0  0  0  0  0  0  0
    3.9266    2.3879   26.2872 H   0  0  0  0  0  0  0  0  0  0  0  0
    2.2096    4.1091   25.6606 H   0  0  0  0  0  0  0  0  0  0  0  0
    1.7988    4.4979   23.4333 H   0  0  0  0  0  0  0  0  0  0  0  0
    1.2656    2.8760   23.7673 H   0  0  0  0  0  0  0  0  0  0  0  0
    3.8945    3.8603   22.6224 H   0  0  0  0  0  0  0  0  0  0  0  0
    2.5862    3.0997   21.6729 H   0  0  0  0  0  0  0  0  0  0  0  0
    8.2038   -1.5560   15.8405 H   0  0  0  0  0  0  0  0  0  0  0  0
   10.2646    2.0024   14.2871 H   0  0  0  0  0  0  0  0  0  0  0  0
   12.3842    2.5451   14.9837 H   0  0  0  0  0  0  0  0  0  0  0  0
   12.0751    1.3580   16.2490 H   0  0  0  0  0  0  0  0  0  0  0  0
   12.7048    4.0600   16.6537 H   0  0  0  0  0  0  0  0  0  0  0  0
   11.9182    3.0530   17.8609 H   0  0  0  0  0  0  0  0  0  0  0  0
    9.9228    4.1521   17.6041 H   0  0  0  0  0  0  0  0  0  0  0  0
   10.7563    5.3357   16.6080 H   0  0  0  0  0  0  0  0  0  0  0  0
    8.7295    3.8406   15.5637 H   0  0  0  0  0  0  0  0  0  0  0  0
   10.1414    4.2922   14.6044 H   0  0  0  0  0  0  0  0  0  0  0  0
    8.4329    2.3329   17.5449 H   0  0  0  0  0  0  0  0  0  0  0  0
  1  2  1  0
  2  3  1  0
  3  4  1  0
  4  5  1  0
  5  6  1  0
  6  7  1  0
  7  8  1  0
  8  9  1  0
  9 10  1  0
  2 11  1  0
 11 12  1  0
 12 13  2  0
 13 14  1  0
 14 15  1  0
 15 16  1  0
 16 17  1  0
 17 18  1  0
 18 19  1  0
 14 20  1  0
 10  5  1  0
 20 11  2  0
 19 15  1  0
  1 21  1  0
  1 22  1  0
  1 23  1  0
  2 24  1  0
  3 25  1  0
  4 26  1  0
  4 27  1  0
  5 28  1  0
  6 29  1  0
  6 30  1  0
  7 31  1  0
  7 32  1  0
  8 33  1  0
  9 34  1  0
  9 35  1  0
 10 36  1  0
 10 37  1  0
 12 38  1  0
 15 39  1  0
 16 40  1  0
 16 41  1  0
 17 42  1  0
 17 43  1  0
 18 44  1  0
 18 45  1  0
 19 46  1  0
 19 47  1  0
 20 48  1  0
M  END
>  <Energy>  (1071) 
475.89129725103135

>  <compound_id>  (1071) 
8606

>  <target_id>  (1071) 
1

>  <reference_id>  (1071) 
81

>  <inspiration_ids>  (1071) 
[81, 44]

>  <energy_score>  (1071) 
414.1363886652003

>  <distance_score>  (1071) 
5.913108594934759

>  <path>  (1071) 
/opt/xchem-fragalysis-2/maxwin/BulkDock/SCRATCH/511016/C8606-P81/C8606-P81.minimised.mol

>  <scratch_subdir>  (1071) 
/opt/xchem-fragalysis-2/maxwin/BulkDock/SCRATCH/511016/C8606-P81

>  <fragmenstein_runtime>  (1071) 
7.381160020828247

>  <fragmenstein_outcome>  (1071) 
too moved

>  <fragmenstein_mode>  (1071) 
expansion

>  <fragmenstein_error>  (1071) 


$$$$
C8606-P44
     RDKit          3D

 48 50  0  0  0  0  0  0  0  0999 V2000
    7.3314   -0.5395   19.7429 C   0  0  0  0  0  0  0  0  0  0  0  0
    6.4944    0.5802   20.1094 C   0  0  0  0  0  0  0  0  0  0  0  0
    4.7964    0.9903   21.2340 N   0  0  0  0  0  0  0  0  0  0  0  0
    4.3114    1.7354   22.9343 C   0  0  0  0  0  0  0  0  0  0  0  0
    4.3685    1.4609   24.5566 C   0  0  0  0  0  0  0  0  0  0  0  0
    3.3723    2.4797   25.2070 C   0  0  0  0  0  0  0  0  0  0  0  0
    3.2742    2.3671   26.7267 C   0  0  0  0  0  0  0  0  0  0  0  0
    3.0270    0.9963   27.1616 N   0  0  0  0  0  0  0  0  0  0  0  0
    4.0971    0.1170   26.6936 C   0  0  0  0  0  0  0  0  0  0  0  0
    4.1467    0.0846   25.1640 C   0  0  0  0  0  0  0  0  0  0  0  0
    7.5989    1.8249   19.2529 C   0  0  0  0  0  0  0  0  0  0  0  0
    8.4419    1.4582   18.1148 C   0  0  0  0  0  0  0  0  0  0  0  0
    9.0450    2.4599   17.4854 N   0  0  0  0  0  0  0  0  0  0  0  0
    8.5153    3.5305   18.0828 N   0  0  0  0  0  0  0  0  0  0  0  0
    8.7304    4.8758   17.5671 C   0  0  0  0  0  0  0  0  0  0  0  0
    8.9310    4.9589   16.0466 C   0  0  0  0  0  0  0  0  0  0  0  0
   10.4392    5.0324   15.8676 C   0  0  0  0  0  0  0  0  0  0  0  0
   10.8828    5.9149   17.0222 C   0  0  0  0  0  0  0  0  0  0  0  0
    9.9676    5.5428   18.1872 C   0  0  0  0  0  0  0  0  0  0  0  0
    7.6475    3.2025   19.0972 C   0  0  0  0  0  0  0  0  0  0  0  0
    8.3861   -0.2887   19.7339 H   0  0  0  0  0  0  0  0  0  0  0  0
    7.0979   -0.6745   18.7140 H   0  0  0  0  0  0  0  0  0  0  0  0
    6.9790   -1.2566   20.4477 H   0  0  0  0  0  0  0  0  0  0  0  0
    6.0289    0.5477   19.0973 H   0  0  0  0  0  0  0  0  0  0  0  0
    4.4361    0.0707   21.5193 H   0  0  0  0  0  0  0  0  0  0  0  0
    4.6766    2.8028   23.0049 H   0  0  0  0  0  0  0  0  0  0  0  0
    3.2581    2.0042   22.7050 H   0  0  0  0  0  0  0  0  0  0  0  0
    5.3470    1.7779   24.9408 H   0  0  0  0  0  0  0  0  0  0  0  0
    3.6884    3.5011   24.9587 H   0  0  0  0  0  0  0  0  0  0  0  0
    2.3756    2.3620   24.7723 H   0  0  0  0  0  0  0  0  0  0  0  0
    4.1951    2.7454   27.1877 H   0  0  0  0  0  0  0  0  0  0  0  0
    2.4585    3.0068   27.0814 H   0  0  0  0  0  0  0  0  0  0  0  0
    2.9898    0.9717   28.1802 H   0  0  0  0  0  0  0  0  0  0  0  0
    3.9031   -0.8962   27.0630 H   0  0  0  0  0  0  0  0  0  0  0  0
    5.0650    0.4277   27.1054 H   0  0  0  0  0  0  0  0  0  0  0  0
    4.9165   -0.6156   24.8342 H   0  0  0  0  0  0  0  0  0  0  0  0
    3.1948   -0.3041   24.8450 H   0  0  0  0  0  0  0  0  0  0  0  0
    8.5783    0.4885   17.6730 H   0  0  0  0  0  0  0  0  0  0  0  0
    7.8285    5.4431   17.8305 H   0  0  0  0  0  0  0  0  0  0  0  0
    8.4817    5.8881   15.6734 H   0  0  0  0  0  0  0  0  0  0  0  0
    8.4838    4.1313   15.4873 H   0  0  0  0  0  0  0  0  0  0  0  0
   10.7205    5.4509   14.8969 H   0  0  0  0  0  0  0  0  0  0  0  0
   10.8878    4.0368   15.9498 H   0  0  0  0  0  0  0  0  0  0  0  0
   11.9401    5.7766   17.2670 H   0  0  0  0  0  0  0  0  0  0  0  0
   10.7363    6.9701   16.7616 H   0  0  0  0  0  0  0  0  0  0  0  0
   10.4846    4.8839   18.8925 H   0  0  0  0  0  0  0  0  0  0  0  0
    9.6875    6.4433   18.7458 H   0  0  0  0  0  0  0  0  0  0  0  0
    7.0517    3.9981   19.5071 H   0  0  0  0  0  0  0  0  0  0  0  0
  1  2  1  0
  2  3  1  0
  3  4  1  0
  4  5  1  0
  5  6  1  0
  6  7  1  0
  7  8  1  0
  8  9  1  0
  9 10  1  0
  2 11  1  0
 11 12  1  0
 12 13  2  0
 13 14  1  0
 14 15  1  0
 15 16  1  0
 16 17  1  0
 17 18  1  0
 18 19  1  0
 14 20  1  0
 10  5  1  0
 20 11  2  0
 19 15  1  0
  1 21  1  0
  1 22  1  0
  1 23  1  0
  2 24  1  0
  3 25  1  0
  4 26  1  0
  4 27  1  0
  5 28  1  0
  6 29  1  0
  6 30  1  0
  7 31  1  0
  7 32  1  0
  8 33  1  0
  9 34  1  0
  9 35  1  0
 10 36  1  0
 10 37  1  0
 12 38  1  0
 15 39  1  0
 16 40  1  0
 16 41  1  0
 17 42  1  0
 17 43  1  0
 18 44  1  0
 18 45  1  0
 19 46  1  0
 19 47  1  0
 20 48  1  0
M  END
>  <Energy>  (1072) 
353.42259263966321

>  <compound_id>  (1072) 
8606

>  <target_id>  (1072) 
1

>  <reference_id>  (1072) 
44

>  <inspiration_ids>  (1072) 
[81, 44]

>  <energy_score>  (1072) 
291.66768405383846

>  <distance_score>  (1072) 
6.281495847142441

>  <path>  (1072) 
/opt/xchem-fragalysis-2/maxwin/BulkDock/SCRATCH/511016/C8606-P44/C8606-P44.minimised.mol

>  <scratch_subdir>  (1072) 
/opt/xchem-fragalysis-2/maxwin/BulkDock/SCRATCH/511016/C8606-P44

>  <fragmenstein_runtime>  (1072) 
7.366994380950928

>  <fragmenstein_outcome>  (1072) 
too moved

>  <fragmenstein_mode>  (1072) 
expansion

>  <fragmenstein_error>  (1072) 


$$$$
C8607-P81
     RDKit          3D

 44 46  0  0  0  0  0  0  0  0999 V2000
    3.1254    5.5705   17.9264 O   0  0  0  0  0  0  0  0  0  0  0  0
    3.7342    5.0539   18.7914 C   0  0  0  0  0  0  0  0  0  0  0  0
    3.2879    4.6509   20.2628 N   0  0  0  0  0  0  0  0  0  0  0  0
    1.9253    4.7254   20.9351 C   0  0  0  0  0  0  0  0  0  0  0  0
    1.5966    4.6992   22.5554 C   0  0  0  0  0  0  0  0  0  0  0  0
    0.0519    4.6234   22.8671 C   0  0  0  0  0  0  0  0  0  0  0  0
   -0.4178    3.5285   23.8524 C   0  0  0  0  0  0  0  0  0  0  0  0
    0.3475    3.4762   25.0818 N   0  0  0  0  0  0  0  0  0  0  0  0
    1.7891    3.5491   24.8847 C   0  0  0  0  0  0  0  0  0  0  0  0
    2.2973    3.6485   23.4225 C   0  0  0  0  0  0  0  0  0  0  0  0
    5.1720    4.6242   18.3226 C   0  0  0  0  0  0  0  0  0  0  0  0
    5.4721    3.8042   17.1599 C   0  0  0  0  0  0  0  0  0  0  0  0
    6.7669    3.6510   16.8459 N   0  0  0  0  0  0  0  0  0  0  0  0
    7.3592    4.4997   17.6853 N   0  0  0  0  0  0  0  0  0  0  0  0
    8.7129    4.9788   17.4181 C   0  0  0  0  0  0  0  0  0  0  0  0
    9.6720    3.9036   16.8752 C   0  0  0  0  0  0  0  0  0  0  0  0
    9.9579    4.2647   15.4162 C   0  0  0  0  0  0  0  0  0  0  0  0
    8.9530    5.3430   15.0466 C   0  0  0  0  0  0  0  0  0  0  0  0
    8.7244    6.0838   16.3550 C   0  0  0  0  0  0  0  0  0  0  0  0
    6.4739    5.0274   18.6257 C   0  0  0  0  0  0  0  0  0  0  0  0
    4.0417    4.1450   20.7215 H   0  0  0  0  0  0  0  0  0  0  0  0
    1.3905    3.8677   20.5077 H   0  0  0  0  0  0  0  0  0  0  0  0
    1.4452    5.6184   20.5175 H   0  0  0  0  0  0  0  0  0  0  0  0
    1.9453    5.6789   22.9124 H   0  0  0  0  0  0  0  0  0  0  0  0
   -0.5039    4.5057   21.9290 H   0  0  0  0  0  0  0  0  0  0  0  0
   -0.2482    5.5997   23.2714 H   0  0  0  0  0  0  0  0  0  0  0  0
   -1.4696    3.7121   24.1003 H   0  0  0  0  0  0  0  0  0  0  0  0
   -0.3962    2.5635   23.3443 H   0  0  0  0  0  0  0  0  0  0  0  0
    0.0847    2.6975   25.6794 H   0  0  0  0  0  0  0  0  0  0  0  0
    2.2598    2.6749   25.3500 H   0  0  0  0  0  0  0  0  0  0  0  0
    2.1546    4.4232   25.4362 H   0  0  0  0  0  0  0  0  0  0  0  0
    3.3624    3.8972   23.4462 H   0  0  0  0  0  0  0  0  0  0  0  0
    2.2317    2.6767   22.9315 H   0  0  0  0  0  0  0  0  0  0  0  0
    4.7135    3.3545   16.5441 H   0  0  0  0  0  0  0  0  0  0  0  0
    9.0851    5.3743   18.3701 H   0  0  0  0  0  0  0  0  0  0  0  0
   10.6143    3.9196   17.4351 H   0  0  0  0  0  0  0  0  0  0  0  0
    9.2719    2.8873   16.9578 H   0  0  0  0  0  0  0  0  0  0  0  0
   10.9772    4.6599   15.3296 H   0  0  0  0  0  0  0  0  0  0  0  0
    9.8869    3.3953   14.7559 H   0  0  0  0  0  0  0  0  0  0  0  0
    9.3274    6.0021   14.2578 H   0  0  0  0  0  0  0  0  0  0  0  0
    8.0211    4.8907   14.6901 H   0  0  0  0  0  0  0  0  0  0  0  0
    9.5671    6.7616   16.5401 H   0  0  0  0  0  0  0  0  0  0  0  0
    7.8088    6.6832   16.3306 H   0  0  0  0  0  0  0  0  0  0  0  0
    6.8181    5.7540   19.3469 H   0  0  0  0  0  0  0  0  0  0  0  0
  1  2  2  0
  2  3  1  0
  3  4  1  0
  4  5  1  0
  5  6  1  0
  6  7  1  0
  7  8  1  0
  8  9  1  0
  9 10  1  0
  2 11  1  0
 11 12  1  0
 12 13  2  0
 13 14  1  0
 14 15  1  0
 15 16  1  0
 16 17  1  0
 17 18  1  0
 18 19  1  0
 14 20  1  0
 10  5  1  0
 20 11  2  0
 19 15  1  0
  3 21  1  0
  4 22  1  0
  4 23  1  0
  5 24  1  0
  6 25  1  0
  6 26  1  0
  7 27  1  0
  7 28  1  0
  8 29  1  0
  9 30  1  0
  9 31  1  0
 10 32  1  0
 10 33  1  0
 12 34  1  0
 15 35  1  0
 16 36  1  0
 16 37  1  0
 17 38  1  0
 17 39  1  0
 18 40  1  0
 18 41  1  0
 19 42  1  0
 19 43  1  0
 20 44  1  0
M  END
>  <Energy>  (1073) 
56.99141445947609

>  <compound_id>  (1073) 
8607

>  <target_id>  (1073) 
1

>  <reference_id>  (1073) 
81

>  <inspiration_ids>  (1073) 
[81, 44]

>  <energy_score>  (1073) 
30.952396625560198

>  <distance_score>  (1073) 
7.220999818241949

>  <path>  (1073) 
/opt/xchem-fragalysis-2/maxwin/BulkDock/SCRATCH/511016/C8607-P81/C8607-P81.minimised.mol

>  <scratch_subdir>  (1073) 
/opt/xchem-fragalysis-2/maxwin/BulkDock/SCRATCH/511016/C8607-P81

>  <fragmenstein_runtime>  (1073) 
5.21357274055481

>  <fragmenstein_outcome>  (1073) 
too moved

>  <fragmenstein_mode>  (1073) 
expansion

>  <fragmenstein_error>  (1073) 


$$$$
C8607-P44
     RDKit          3D

 44 46  0  0  0  0  0  0  0  0999 V2000
    6.0332    7.5067   20.8080 O   0  0  0  0  0  0  0  0  0  0  0  0
    5.5586    6.4753   20.4335 C   0  0  0  0  0  0  0  0  0  0  0  0
    4.3707    5.7798   20.8565 N   0  0  0  0  0  0  0  0  0  0  0  0
    3.3266    6.1588   21.8008 C   0  0  0  0  0  0  0  0  0  0  0  0
    2.6450    5.0079   22.5839 C   0  0  0  0  0  0  0  0  0  0  0  0
    1.2859    5.4582   23.1629 C   0  0  0  0  0  0  0  0  0  0  0  0
    0.6366    4.3778   24.0333 C   0  0  0  0  0  0  0  0  0  0  0  0
    1.5258    3.9450   25.1075 N   0  0  0  0  0  0  0  0  0  0  0  0
    2.7974    3.4489   24.5874 C   0  0  0  0  0  0  0  0  0  0  0  0
    3.5185    4.5023   23.7428 C   0  0  0  0  0  0  0  0  0  0  0  0
    6.2341    5.8277   19.2860 C   0  0  0  0  0  0  0  0  0  0  0  0
    5.7245    5.4113   18.0308 C   0  0  0  0  0  0  0  0  0  0  0  0
    6.6553    4.8957   17.2200 N   0  0  0  0  0  0  0  0  0  0  0  0
    7.7825    4.9677   17.9463 N   0  0  0  0  0  0  0  0  0  0  0  0
    9.0479    4.4803   17.4275 C   0  0  0  0  0  0  0  0  0  0  0  0
    9.8175    5.5792   16.6781 C   0  0  0  0  0  0  0  0  0  0  0  0
   10.4851    4.8674   15.5120 C   0  0  0  0  0  0  0  0  0  0  0  0
    9.4590    3.8220   15.1156 C   0  0  0  0  0  0  0  0  0  0  0  0
    8.9489    3.2920   16.4499 C   0  0  0  0  0  0  0  0  0  0  0  0
    7.5970    5.6075   19.1412 C   0  0  0  0  0  0  0  0  0  0  0  0
    4.2305    4.9701   20.2593 H   0  0  0  0  0  0  0  0  0  0  0  0
    2.5747    6.6757   21.1932 H   0  0  0  0  0  0  0  0  0  0  0  0
    3.7462    6.9054   22.4846 H   0  0  0  0  0  0  0  0  0  0  0  0
    2.4500    4.1778   21.8944 H   0  0  0  0  0  0  0  0  0  0  0  0
    0.6040    5.7176   22.3441 H   0  0  0  0  0  0  0  0  0  0  0  0
    1.4247    6.3693   23.7600 H   0  0  0  0  0  0  0  0  0  0  0  0
   -0.2819    4.7801   24.4745 H   0  0  0  0  0  0  0  0  0  0  0  0
    0.3435    3.5225   23.4147 H   0  0  0  0  0  0  0  0  0  0  0  0
    1.0718    3.2292   25.6720 H   0  0  0  0  0  0  0  0  0  0  0  0
    2.6378    2.5432   23.9933 H   0  0  0  0  0  0  0  0  0  0  0  0
    3.4384    3.1679   25.4301 H   0  0  0  0  0  0  0  0  0  0  0  0
    3.8061    5.3442   24.3863 H   0  0  0  0  0  0  0  0  0  0  0  0
    4.4474    4.0751   23.3517 H   0  0  0  0  0  0  0  0  0  0  0  0
    4.7039    5.4686   17.6740 H   0  0  0  0  0  0  0  0  0  0  0  0
    9.6195    4.1583   18.3065 H   0  0  0  0  0  0  0  0  0  0  0  0
    9.1394    6.3535   16.2975 H   0  0  0  0  0  0  0  0  0  0  0  0
   10.5508    6.0746   17.3228 H   0  0  0  0  0  0  0  0  0  0  0  0
   10.7239    5.5497   14.6913 H   0  0  0  0  0  0  0  0  0  0  0  0
   11.4138    4.3864   15.8398 H   0  0  0  0  0  0  0  0  0  0  0  0
    8.6389    4.2910   14.5592 H   0  0  0  0  0  0  0  0  0  0  0  0
    9.8888    3.0322   14.4930 H   0  0  0  0  0  0  0  0  0  0  0  0
    7.9498    2.8593   16.3533 H   0  0  0  0  0  0  0  0  0  0  0  0
    9.6092    2.4861   16.7912 H   0  0  0  0  0  0  0  0  0  0  0  0
    8.4272    5.8368   19.7942 H   0  0  0  0  0  0  0  0  0  0  0  0
  1  2  2  0
  2  3  1  0
  3  4  1  0
  4  5  1  0
  5  6  1  0
  6  7  1  0
  7  8  1  0
  8  9  1  0
  9 10  1  0
  2 11  1  0
 11 12  1  0
 12 13  2  0
 13 14  1  0
 14 15  1  0
 15 16  1  0
 16 17  1  0
 17 18  1  0
 18 19  1  0
 14 20  1  0
 10  5  1  0
 20 11  2  0
 19 15  1  0
  3 21  1  0
  4 22  1  0
  4 23  1  0
  5 24  1  0
  6 25  1  0
  6 26  1  0
  7 27  1  0
  7 28  1  0
  8 29  1  0
  9 30  1  0
  9 31  1  0
 10 32  1  0
 10 33  1  0
 12 34  1  0
 15 35  1  0
 16 36  1  0
 16 37  1  0
 17 38  1  0
 17 39  1  0
 18 40  1  0
 18 41  1  0
 19 42  1  0
 19 43  1  0
 20 44  1  0
M  END
>  <Energy>  (1074) 
3.1749527356388914

>  <compound_id>  (1074) 
8607

>  <target_id>  (1074) 
1

>  <reference_id>  (1074) 
44

>  <inspiration_ids>  (1074) 
[81, 44]

>  <energy_score>  (1074) 
-26.357045021917145

>  <distance_score>  (1074) 
7.960847258022346

>  <path>  (1074) 
/opt/xchem-fragalysis-2/maxwin/BulkDock/SCRATCH/511016/C8607-P44/C8607-P44.minimised.mol

>  <scratch_subdir>  (1074) 
/opt/xchem-fragalysis-2/maxwin/BulkDock/SCRATCH/511016/C8607-P44

>  <fragmenstein_runtime>  (1074) 
7.401547431945801

>  <fragmenstein_outcome>  (1074) 
too moved

>  <fragmenstein_mode>  (1074) 
expansion

>  <fragmenstein_error>  (1074) 


$$$$
C8608-P81
     RDKit          3D

 41 43  0  0  0  0  0  0  0  0999 V2000
    4.8356    6.6952   20.3566 O   0  0  0  0  0  0  0  0  0  0  0  0
    4.5195    5.5976   20.0566 C   0  0  0  0  0  0  0  0  0  0  0  0
    3.3401    4.6742   20.6132 N   0  0  0  0  0  0  0  0  0  0  0  0
    2.3304    4.9140   21.7840 C   0  0  0  0  0  0  0  0  0  0  0  0
    1.0950    3.9405   21.7164 C   0  0  0  0  0  0  0  0  0  0  0  0
    0.1552    3.9229   22.9526 C   0  0  0  0  0  0  0  0  0  0  0  0
    0.8410    3.6510   24.2166 N   0  0  0  0  0  0  0  0  0  0  0  0
    1.9132    4.6387   24.3856 C   0  0  0  0  0  0  0  0  0  0  0  0
    2.9222    4.6612   23.2082 C   0  0  0  0  0  0  0  0  0  0  0  0
    5.5000    4.8983   18.9092 C   0  0  0  0  0  0  0  0  0  0  0  0
    5.1986    4.0846   17.7400 C   0  0  0  0  0  0  0  0  0  0  0  0
    6.3888    3.7521   17.1121 C   0  0  0  0  0  0  0  0  0  0  0  0
    7.3413    4.4629   17.7630 N   0  0  0  0  0  0  0  0  0  0  0  0
    8.7063    4.6773   17.2909 C   0  0  0  0  0  0  0  0  0  0  0  0
    9.4999    5.7667   18.0266 C   0  0  0  0  0  0  0  0  0  0  0  0
    9.0982    7.0804   17.3573 C   0  0  0  0  0  0  0  0  0  0  0  0
    8.5581    6.7062   15.9792 C   0  0  0  0  0  0  0  0  0  0  0  0
    8.7661    5.2013   15.8484 C   0  0  0  0  0  0  0  0  0  0  0  0
    6.8711    5.0563   18.9038 N   0  0  0  0  0  0  0  0  0  0  0  0
    3.4014    3.7556   20.1938 H   0  0  0  0  0  0  0  0  0  0  0  0
    2.0076    5.9573   21.7029 H   0  0  0  0  0  0  0  0  0  0  0  0
    1.4800    2.9261   21.5568 H   0  0  0  0  0  0  0  0  0  0  0  0
    0.5084    4.1845   20.8223 H   0  0  0  0  0  0  0  0  0  0  0  0
   -0.6115    3.1554   22.7978 H   0  0  0  0  0  0  0  0  0  0  0  0
   -0.3690    4.8848   23.0144 H   0  0  0  0  0  0  0  0  0  0  0  0
    0.1805    3.7626   24.9870 H   0  0  0  0  0  0  0  0  0  0  0  0
    2.4573    4.4053   25.3075 H   0  0  0  0  0  0  0  0  0  0  0  0
    1.4836    5.6401   24.5125 H   0  0  0  0  0  0  0  0  0  0  0  0
    3.4192    3.6882   23.1871 H   0  0  0  0  0  0  0  0  0  0  0  0
    3.7018    5.4058   23.4074 H   0  0  0  0  0  0  0  0  0  0  0  0
    4.2115    3.7942   17.4095 H   0  0  0  0  0  0  0  0  0  0  0  0
    6.5924    3.1687   16.2277 H   0  0  0  0  0  0  0  0  0  0  0  0
    9.2033    3.7044   17.3693 H   0  0  0  0  0  0  0  0  0  0  0  0
    9.3460    5.8019   19.1081 H   0  0  0  0  0  0  0  0  0  0  0  0
   10.5724    5.5996   17.8622 H   0  0  0  0  0  0  0  0  0  0  0  0
    8.3217    7.5910   17.9379 H   0  0  0  0  0  0  0  0  0  0  0  0
    9.9531    7.7607   17.2855 H   0  0  0  0  0  0  0  0  0  0  0  0
    9.0641    7.2539   15.1780 H   0  0  0  0  0  0  0  0  0  0  0  0
    7.4905    6.9488   15.9208 H   0  0  0  0  0  0  0  0  0  0  0  0
    8.0394    4.7509   15.1666 H   0  0  0  0  0  0  0  0  0  0  0  0
    9.7643    5.0102   15.4336 H   0  0  0  0  0  0  0  0  0  0  0  0
  1  2  2  0
  2  3  1  0
  3  4  1  0
  4  5  1  0
  5  6  1  0
  6  7  1  0
  7  8  1  0
  8  9  1  0
  2 10  1  0
 10 11  1  0
 11 12  2  0
 12 13  1  0
 13 14  1  0
 14 15  1  0
 15 16  1  0
 16 17  1  0
 17 18  1  0
 13 19  1  0
  9  4  1  0
 19 10  2  0
 18 14  1  0
  3 20  1  0
  4 21  1  0
  5 22  1  0
  5 23  1  0
  6 24  1  0
  6 25  1  0
  7 26  1  0
  8 27  1  0
  8 28  1  0
  9 29  1  0
  9 30  1  0
 11 31  1  0
 12 32  1  0
 14 33  1  0
 15 34  1  0
 15 35  1  0
 16 36  1  0
 16 37  1  0
 17 38  1  0
 17 39  1  0
 18 40  1  0
 18 41  1  0
M  END
>  <Energy>  (1075) 
79.73370716674593

>  <compound_id>  (1075) 
8608

>  <target_id>  (1075) 
1

>  <reference_id>  (1075) 
81

>  <inspiration_ids>  (1075) 
[81, 44]

>  <energy_score>  (1075) 
12.755672768298325

>  <distance_score>  (1075) 
7.551428182721661

>  <path>  (1075) 
/opt/xchem-fragalysis-2/maxwin/BulkDock/SCRATCH/511016/C8608-P81/C8608-P81.minimised.mol

>  <scratch_subdir>  (1075) 
/opt/xchem-fragalysis-2/maxwin/BulkDock/SCRATCH/511016/C8608-P81

>  <fragmenstein_runtime>  (1075) 
5.4804089069366455

>  <fragmenstein_outcome>  (1075) 
too moved

>  <fragmenstein_mode>  (1075) 
expansion

>  <fragmenstein_error>  (1075) 


$$$$
C8608-P44
     RDKit          3D

 41 43  0  0  0  0  0  0  0  0999 V2000
    8.5089   -0.2605   26.7255 O   0  0  0  0  0  0  0  0  0  0  0  0
    8.3695    0.7516   26.1357 C   0  0  0  0  0  0  0  0  0  0  0  0
    7.1402    1.7684   26.1088 N   0  0  0  0  0  0  0  0  0  0  0  0
    5.7399    1.6693   26.7665 C   0  0  0  0  0  0  0  0  0  0  0  0
    4.6946    0.7433   26.0624 C   0  0  0  0  0  0  0  0  0  0  0  0
    3.3619    0.6365   26.8450 C   0  0  0  0  0  0  0  0  0  0  0  0
    2.7119    1.9298   27.0264 N   0  0  0  0  0  0  0  0  0  0  0  0
    3.6181    2.8682   27.6862 C   0  0  0  0  0  0  0  0  0  0  0  0
    4.9839    3.0224   26.9661 C   0  0  0  0  0  0  0  0  0  0  0  0
    9.6063    1.1178   25.1738 C   0  0  0  0  0  0  0  0  0  0  0  0
   10.6488    0.2165   24.7152 C   0  0  0  0  0  0  0  0  0  0  0  0
   11.4913    0.9226   23.8807 C   0  0  0  0  0  0  0  0  0  0  0  0
   10.9439    2.1545   23.7859 N   0  0  0  0  0  0  0  0  0  0  0  0
   11.5965    3.3058   23.1864 C   0  0  0  0  0  0  0  0  0  0  0  0
   11.4664    3.3734   21.6579 C   0  0  0  0  0  0  0  0  0  0  0  0
   11.1782    4.8336   21.3146 C   0  0  0  0  0  0  0  0  0  0  0  0
   11.5674    5.6162   22.5577 C   0  0  0  0  0  0  0  0  0  0  0  0
   11.1508    4.6876   23.6867 C   0  0  0  0  0  0  0  0  0  0  0  0
    9.8536    2.3108   24.5911 N   0  0  0  0  0  0  0  0  0  0  0  0
    7.3853    2.5852   25.5561 H   0  0  0  0  0  0  0  0  0  0  0  0
    5.9505    1.2355   27.7522 H   0  0  0  0  0  0  0  0  0  0  0  0
    4.5024    1.1141   25.0480 H   0  0  0  0  0  0  0  0  0  0  0  0
    5.1272   -0.2582   25.9510 H   0  0  0  0  0  0  0  0  0  0  0  0
    3.5511    0.1738   27.8218 H   0  0  0  0  0  0  0  0  0  0  0  0
    2.6894   -0.0350   26.3095 H   0  0  0  0  0  0  0  0  0  0  0  0
    1.8649    1.8193   27.5839 H   0  0  0  0  0  0  0  0  0  0  0  0
    3.7916    2.5486   28.7212 H   0  0  0  0  0  0  0  0  0  0  0  0
    3.1346    3.8502   27.7332 H   0  0  0  0  0  0  0  0  0  0  0  0
    5.6199    3.7027   27.5448 H   0  0  0  0  0  0  0  0  0  0  0  0
    4.8318    3.4957   25.9873 H   0  0  0  0  0  0  0  0  0  0  0  0
   10.7707   -0.8157   25.0161 H   0  0  0  0  0  0  0  0  0  0  0  0
   12.4174    0.6534   23.3925 H   0  0  0  0  0  0  0  0  0  0  0  0
   12.6635    3.1982   23.4313 H   0  0  0  0  0  0  0  0  0  0  0  0
   12.4098    3.0592   21.1960 H   0  0  0  0  0  0  0  0  0  0  0  0
   10.6819    2.7243   21.2617 H   0  0  0  0  0  0  0  0  0  0  0  0
   10.1079    4.9604   21.1143 H   0  0  0  0  0  0  0  0  0  0  0  0
   11.7246    5.1657   20.4268 H   0  0  0  0  0  0  0  0  0  0  0  0
   12.6507    5.7827   22.5801 H   0  0  0  0  0  0  0  0  0  0  0  0
   11.0682    6.5878   22.6108 H   0  0  0  0  0  0  0  0  0  0  0  0
   11.6253    4.9534   24.6366 H   0  0  0  0  0  0  0  0  0  0  0  0
   10.0657    4.7504   23.8248 H   0  0  0  0  0  0  0  0  0  0  0  0
  1  2  2  0
  2  3  1  0
  3  4  1  0
  4  5  1  0
  5  6  1  0
  6  7  1  0
  7  8  1  0
  8  9  1  0
  2 10  1  0
 10 11  1  0
 11 12  2  0
 12 13  1  0
 13 14  1  0
 14 15  1  0
 15 16  1  0
 16 17  1  0
 17 18  1  0
 13 19  1  0
  9  4  1  0
 19 10  2  0
 18 14  1  0
  3 20  1  0
  4 21  1  0
  5 22  1  0
  5 23  1  0
  6 24  1  0
  6 25  1  0
  7 26  1  0
  8 27  1  0
  8 28  1  0
  9 29  1  0
  9 30  1  0
 11 31  1  0
 12 32  1  0
 14 33  1  0
 15 34  1  0
 15 35  1  0
 16 36  1  0
 16 37  1  0
 17 38  1  0
 17 39  1  0
 18 40  1  0
 18 41  1  0
M  END
>  <Energy>  (1076) 
61.804155072654652

>  <compound_id>  (1076) 
8608

>  <target_id>  (1076) 
1

>  <reference_id>  (1076) 
44

>  <inspiration_ids>  (1076) 
[81, 44]

>  <energy_score>  (1076) 
-5.173879325794871

>  <distance_score>  (1076) 
8.024888523872292

>  <path>  (1076) 
/opt/xchem-fragalysis-2/maxwin/BulkDock/SCRATCH/511016/C8608-P44/C8608-P44.minimised.mol

>  <scratch_subdir>  (1076) 
/opt/xchem-fragalysis-2/maxwin/BulkDock/SCRATCH/511016/C8608-P44

>  <fragmenstein_runtime>  (1076) 
4.386240482330322

>  <fragmenstein_outcome>  (1076) 
too moved

>  <fragmenstein_mode>  (1076) 
expansion

>  <fragmenstein_error>  (1076) 


$$$$
C8609-P81
     RDKit          3D

 41 43  0  0  0  0  0  0  0  0999 V2000
    3.6127    6.3376   18.4383 O   0  0  0  0  0  0  0  0  0  0  0  0
    4.1371    5.5122   19.0904 C   0  0  0  0  0  0  0  0  0  0  0  0
    3.8003    4.9918   20.5457 N   0  0  0  0  0  0  0  0  0  0  0  0
    2.6255    5.3432   21.4916 C   0  0  0  0  0  0  0  0  0  0  0  0
    1.3314    4.4703   21.3549 C   0  0  0  0  0  0  0  0  0  0  0  0
    1.0654    3.4995   22.5253 C   0  0  0  0  0  0  0  0  0  0  0  0
    0.9340    4.0846   23.8598 N   0  0  0  0  0  0  0  0  0  0  0  0
    1.8364    5.2278   24.0172 C   0  0  0  0  0  0  0  0  0  0  0  0
    3.0217    5.2786   23.0159 C   0  0  0  0  0  0  0  0  0  0  0  0
    5.3922    4.8361   18.4452 C   0  0  0  0  0  0  0  0  0  0  0  0
    5.5112    3.8910   17.4002 C   0  0  0  0  0  0  0  0  0  0  0  0
    6.8901    3.6599   17.1416 C   0  0  0  0  0  0  0  0  0  0  0  0
    7.6428    4.4970   17.8511 N   0  0  0  0  0  0  0  0  0  0  0  0
    6.7242    5.2765   18.5062 N   0  0  0  0  0  0  0  0  0  0  0  0
    7.1208    6.5487   19.1097 C   0  0  0  0  0  0  0  0  0  0  0  0
    8.6281    6.7773   19.2944 C   0  0  0  0  0  0  0  0  0  0  0  0
    9.1254    7.3970   17.9882 C   0  0  0  0  0  0  0  0  0  0  0  0
    7.8862    7.8907   17.2489 C   0  0  0  0  0  0  0  0  0  0  0  0
    6.7346    7.7486   18.2365 C   0  0  0  0  0  0  0  0  0  0  0  0
    4.4056    4.2110   20.7760 H   0  0  0  0  0  0  0  0  0  0  0  0
    2.3623    6.3734   21.2242 H   0  0  0  0  0  0  0  0  0  0  0  0
    0.4711    5.1480   21.2761 H   0  0  0  0  0  0  0  0  0  0  0  0
    1.3714    3.9066   20.4153 H   0  0  0  0  0  0  0  0  0  0  0  0
    1.9079    2.8006   22.5446 H   0  0  0  0  0  0  0  0  0  0  0  0
    0.1533    2.9364   22.3037 H   0  0  0  0  0  0  0  0  0  0  0  0
   -0.0227    4.4131   24.0003 H   0  0  0  0  0  0  0  0  0  0  0  0
    2.2274    5.2251   25.0403 H   0  0  0  0  0  0  0  0  0  0  0  0
    1.2579    6.1529   23.9014 H   0  0  0  0  0  0  0  0  0  0  0  0
    3.6551    4.3999   23.1785 H   0  0  0  0  0  0  0  0  0  0  0  0
    3.6515    6.1473   23.2440 H   0  0  0  0  0  0  0  0  0  0  0  0
    4.6711    3.4194   16.9118 H   0  0  0  0  0  0  0  0  0  0  0  0
    7.3447    2.9525   16.4622 H   0  0  0  0  0  0  0  0  0  0  0  0
    6.6162    6.5843   20.0823 H   0  0  0  0  0  0  0  0  0  0  0  0
    8.7793    7.5037   20.1036 H   0  0  0  0  0  0  0  0  0  0  0  0
    9.2016    5.8873   19.5589 H   0  0  0  0  0  0  0  0  0  0  0  0
    9.8226    8.2168   18.1914 H   0  0  0  0  0  0  0  0  0  0  0  0
    9.6603    6.6588   17.3805 H   0  0  0  0  0  0  0  0  0  0  0  0
    7.9987    8.9223   16.9015 H   0  0  0  0  0  0  0  0  0  0  0  0
    7.7066    7.2649   16.3667 H   0  0  0  0  0  0  0  0  0  0  0  0
    5.7795    7.6426   17.7159 H   0  0  0  0  0  0  0  0  0  0  0  0
    6.6770    8.6506   18.8587 H   0  0  0  0  0  0  0  0  0  0  0  0
  1  2  2  0
  2  3  1  0
  3  4  1  0
  4  5  1  0
  5  6  1  0
  6  7  1  0
  7  8  1  0
  8  9  1  0
  2 10  1  0
 10 11  2  0
 11 12  1  0
 12 13  2  0
 13 14  1  0
 14 15  1  0
 15 16  1  0
 16 17  1  0
 17 18  1  0
 18 19  1  0
  9  4  1  0
 14 10  1  0
 19 15  1  0
  3 20  1  0
  4 21  1  0
  5 22  1  0
  5 23  1  0
  6 24  1  0
  6 25  1  0
  7 26  1  0
  8 27  1  0
  8 28  1  0
  9 29  1  0
  9 30  1  0
 11 31  1  0
 12 32  1  0
 15 33  1  0
 16 34  1  0
 16 35  1  0
 17 36  1  0
 17 37  1  0
 18 38  1  0
 18 39  1  0
 19 40  1  0
 19 41  1  0
M  END
>  <Energy>  (1077) 
21.036431824761529

>  <compound_id>  (1077) 
8609

>  <target_id>  (1077) 
1

>  <reference_id>  (1077) 
81

>  <inspiration_ids>  (1077) 
[81, 44]

>  <energy_score>  (1077) 
14.412107876116636

>  <distance_score>  (1077) 
7.656904831582717

>  <path>  (1077) 
/opt/xchem-fragalysis-2/maxwin/BulkDock/SCRATCH/511016/C8609-P81/C8609-P81.minimised.mol

>  <scratch_subdir>  (1077) 
/opt/xchem-fragalysis-2/maxwin/BulkDock/SCRATCH/511016/C8609-P81

>  <fragmenstein_runtime>  (1077) 
5.8480095863342285

>  <fragmenstein_outcome>  (1077) 
too moved

>  <fragmenstein_mode>  (1077) 
expansion

>  <fragmenstein_error>  (1077) 


$$$$
C8609-P44
     RDKit          3D

 41 43  0  0  0  0  0  0  0  0999 V2000
    4.4099    6.4370   19.0122 O   0  0  0  0  0  0  0  0  0  0  0  0
    5.0879    5.7046   19.6362 C   0  0  0  0  0  0  0  0  0  0  0  0
    4.8386    5.0306   21.0496 N   0  0  0  0  0  0  0  0  0  0  0  0
    3.5558    5.0567   21.9972 C   0  0  0  0  0  0  0  0  0  0  0  0
    2.4618    6.1082   22.2522 C   0  0  0  0  0  0  0  0  0  0  0  0
    1.2468    5.4649   23.0440 C   0  0  0  0  0  0  0  0  0  0  0  0
    1.5730    4.8596   24.3458 N   0  0  0  0  0  0  0  0  0  0  0  0
    2.6440    3.8877   24.1846 C   0  0  0  0  0  0  0  0  0  0  0  0
    3.8663    4.4555   23.4293 C   0  0  0  0  0  0  0  0  0  0  0  0
    6.4513    5.1860   18.9484 C   0  0  0  0  0  0  0  0  0  0  0  0
    6.6240    4.4015   17.7627 C   0  0  0  0  0  0  0  0  0  0  0  0
    7.9388    3.8711   17.7607 C   0  0  0  0  0  0  0  0  0  0  0  0
    8.6537    4.4311   18.7318 N   0  0  0  0  0  0  0  0  0  0  0  0
    7.7953    5.3547   19.2751 N   0  0  0  0  0  0  0  0  0  0  0  0
    8.2998    6.4432   20.1082 C   0  0  0  0  0  0  0  0  0  0  0  0
    8.5332    7.7189   19.2971 C   0  0  0  0  0  0  0  0  0  0  0  0
    9.9348    7.5508   18.7250 C   0  0  0  0  0  0  0  0  0  0  0  0
   10.7042    6.7294   19.7567 C   0  0  0  0  0  0  0  0  0  0  0  0
    9.6701    6.1995   20.7521 C   0  0  0  0  0  0  0  0  0  0  0  0
    5.5939    4.3873   21.2572 H   0  0  0  0  0  0  0  0  0  0  0  0
    2.9539    4.2999   21.4825 H   0  0  0  0  0  0  0  0  0  0  0  0
    2.8724    6.9518   22.8190 H   0  0  0  0  0  0  0  0  0  0  0  0
    2.0974    6.5041   21.2976 H   0  0  0  0  0  0  0  0  0  0  0  0
    0.7664    4.7110   22.4075 H   0  0  0  0  0  0  0  0  0  0  0  0
    0.4989    6.2489   23.2090 H   0  0  0  0  0  0  0  0  0  0  0  0
    1.8831    5.6010   24.9749 H   0  0  0  0  0  0  0  0  0  0  0  0
    2.2663    3.0108   23.6493 H   0  0  0  0  0  0  0  0  0  0  0  0
    2.9611    3.5362   25.1726 H   0  0  0  0  0  0  0  0  0  0  0  0
    4.3480    5.2352   24.0340 H   0  0  0  0  0  0  0  0  0  0  0  0
    4.5994    3.6501   23.3401 H   0  0  0  0  0  0  0  0  0  0  0  0
    5.8225    4.1210   17.0904 H   0  0  0  0  0  0  0  0  0  0  0  0
    8.3805    3.1343   17.1033 H   0  0  0  0  0  0  0  0  0  0  0  0
    7.5436    6.6103   20.8837 H   0  0  0  0  0  0  0  0  0  0  0  0
    7.7899    7.8855   18.5110 H   0  0  0  0  0  0  0  0  0  0  0  0
    8.5165    8.5883   19.9661 H   0  0  0  0  0  0  0  0  0  0  0  0
    9.8920    7.0067   17.7741 H   0  0  0  0  0  0  0  0  0  0  0  0
   10.4134    8.5151   18.5283 H   0  0  0  0  0  0  0  0  0  0  0  0
   11.2396    5.9081   19.2678 H   0  0  0  0  0  0  0  0  0  0  0  0
   11.4518    7.3418   20.2724 H   0  0  0  0  0  0  0  0  0  0  0  0
    9.7411    6.7874   21.6762 H   0  0  0  0  0  0  0  0  0  0  0  0
    9.8594    5.1557   21.0211 H   0  0  0  0  0  0  0  0  0  0  0  0
  1  2  2  0
  2  3  1  0
  3  4  1  0
  4  5  1  0
  5  6  1  0
  6  7  1  0
  7  8  1  0
  8  9  1  0
  2 10  1  0
 10 11  2  0
 11 12  1  0
 12 13  2  0
 13 14  1  0
 14 15  1  0
 15 16  1  0
 16 17  1  0
 17 18  1  0
 18 19  1  0
  9  4  1  0
 14 10  1  0
 19 15  1  0
  3 20  1  0
  4 21  1  0
  5 22  1  0
  5 23  1  0
  6 24  1  0
  6 25  1  0
  7 26  1  0
  8 27  1  0
  8 28  1  0
  9 29  1  0
  9 30  1  0
 11 31  1  0
 12 32  1  0
 15 33  1  0
 16 34  1  0
 16 35  1  0
 17 36  1  0
 17 37  1  0
 18 38  1  0
 18 39  1  0
 19 40  1  0
 19 41  1  0
M  END
>  <Energy>  (1078) 
38.800592172908246

>  <compound_id>  (1078) 
8609

>  <target_id>  (1078) 
1

>  <reference_id>  (1078) 
44

>  <inspiration_ids>  (1078) 
[81, 44]

>  <energy_score>  (1078) 
32.176268224262515

>  <distance_score>  (1078) 
7.730026284196563

>  <path>  (1078) 
/opt/xchem-fragalysis-2/maxwin/BulkDock/SCRATCH/511016/C8609-P44/C8609-P44.minimised.mol

>  <scratch_subdir>  (1078) 
/opt/xchem-fragalysis-2/maxwin/BulkDock/SCRATCH/511016/C8609-P44

>  <fragmenstein_runtime>  (1078) 
6.899912595748901

>  <fragmenstein_outcome>  (1078) 
too moved

>  <fragmenstein_mode>  (1078) 
expansion

>  <fragmenstein_error>  (1078) 


$$$$
C8610-P81
     RDKit          3D

 48 50  0  0  0  0  0  0  0  0999 V2000
    2.6762    2.5978   21.4991 C   0  0  0  0  0  0  0  0  0  0  0  0
    3.7044    1.4540   22.2534 C   0  0  0  0  0  0  0  0  0  0  0  0
    5.3382    0.3907   21.7054 N   0  0  0  0  0  0  0  0  0  0  0  0
    7.2020    0.4626   20.1890 S   0  0  0  0  0  0  0  0  0  0  0  0
    7.8371   -0.8030   19.9867 O   0  0  0  0  0  0  0  0  0  0  0  0
    7.7573    1.5089   21.0833 O   0  0  0  0  0  0  0  0  0  0  0  0
    7.6975    1.6949   18.3986 C   0  0  0  0  0  0  0  0  0  0  0  0
    8.3930    1.1152   17.2045 C   0  0  0  0  0  0  0  0  0  0  0  0
    8.7481    2.0206   16.2919 N   0  0  0  0  0  0  0  0  0  0  0  0
    8.1849    3.1571   16.7483 N   0  0  0  0  0  0  0  0  0  0  0  0
    8.3086    4.3875   15.9881 C   0  0  0  0  0  0  0  0  0  0  0  0
    9.5400    4.4700   15.0802 C   0  0  0  0  0  0  0  0  0  0  0  0
    9.5994    5.9415   14.7029 C   0  0  0  0  0  0  0  0  0  0  0  0
    9.1238    6.6903   15.9430 C   0  0  0  0  0  0  0  0  0  0  0  0
    8.4653    5.6494   16.8476 C   0  0  0  0  0  0  0  0  0  0  0  0
    7.4463    3.0027   17.8991 C   0  0  0  0  0  0  0  0  0  0  0  0
    3.1340    1.9064   23.9400 C   0  0  0  0  0  0  0  0  0  0  0  0
    1.8004    2.7918   24.2566 C   0  0  0  0  0  0  0  0  0  0  0  0
    1.3596    2.8163   25.7232 C   0  0  0  0  0  0  0  0  0  0  0  0
    2.5095    2.9817   26.5829 N   0  0  0  0  0  0  0  0  0  0  0  0
    3.3311    1.7821   26.5859 C   0  0  0  0  0  0  0  0  0  0  0  0
    3.5166    1.0807   25.2267 C   0  0  0  0  0  0  0  0  0  0  0  0
    1.6381    2.4534   21.7809 H   0  0  0  0  0  0  0  0  0  0  0  0
    2.5995    2.5730   20.4187 H   0  0  0  0  0  0  0  0  0  0  0  0
    2.9082    3.6217   21.8293 H   0  0  0  0  0  0  0  0  0  0  0  0
    3.0631    0.8180   21.7180 H   0  0  0  0  0  0  0  0  0  0  0  0
    5.2462   -0.6044   21.9306 H   0  0  0  0  0  0  0  0  0  0  0  0
    8.6154    0.0824   17.0145 H   0  0  0  0  0  0  0  0  0  0  0  0
    7.3963    4.4649   15.3824 H   0  0  0  0  0  0  0  0  0  0  0  0
    9.4597    3.8310   14.1960 H   0  0  0  0  0  0  0  0  0  0  0  0
   10.4500    4.1830   15.6224 H   0  0  0  0  0  0  0  0  0  0  0  0
    8.9171    6.1400   13.8677 H   0  0  0  0  0  0  0  0  0  0  0  0
   10.6024    6.2487   14.3925 H   0  0  0  0  0  0  0  0  0  0  0  0
    8.4183    7.4815   15.6673 H   0  0  0  0  0  0  0  0  0  0  0  0
    9.9629    7.1669   16.4615 H   0  0  0  0  0  0  0  0  0  0  0  0
    9.1122    5.4580   17.7135 H   0  0  0  0  0  0  0  0  0  0  0  0
    7.5038    6.0056   17.2325 H   0  0  0  0  0  0  0  0  0  0  0  0
    6.8901    3.8435   18.2887 H   0  0  0  0  0  0  0  0  0  0  0  0
    3.6563    2.8499   23.9614 H   0  0  0  0  0  0  0  0  0  0  0  0
    0.9035    2.6081   23.6752 H   0  0  0  0  0  0  0  0  0  0  0  0
    2.0326    3.8384   23.9923 H   0  0  0  0  0  0  0  0  0  0  0  0
    0.7887    1.9251   25.9979 H   0  0  0  0  0  0  0  0  0  0  0  0
    0.6823    3.6666   25.8664 H   0  0  0  0  0  0  0  0  0  0  0  0
    2.2160    3.1965   27.5351 H   0  0  0  0  0  0  0  0  0  0  0  0
    2.9110    1.0573   27.2953 H   0  0  0  0  0  0  0  0  0  0  0  0
    4.3148    2.0542   26.9865 H   0  0  0  0  0  0  0  0  0  0  0  0
    4.5397    0.7369   25.2218 H   0  0  0  0  0  0  0  0  0  0  0  0
    3.0059    0.1277   25.2865 H   0  0  0  0  0  0  0  0  0  0  0  0
  1  2  1  0
  2  3  1  0
  3  4  1  0
  4  5  2  0
  4  6  2  0
  4  7  1  0
  7  8  1  0
  8  9  2  0
  9 10  1  0
 10 11  1  0
 11 12  1  0
 12 13  1  0
 13 14  1  0
 14 15  1  0
 10 16  1  0
  2 17  1  0
 17 18  1  0
 18 19  1  0
 19 20  1  0
 20 21  1  0
 21 22  1  0
 16  7  2  0
 22 17  1  0
 15 11  1  0
  1 23  1  0
  1 24  1  0
  1 25  1  0
  2 26  1  0
  3 27  1  0
  8 28  1  0
 11 29  1  0
 12 30  1  0
 12 31  1  0
 13 32  1  0
 13 33  1  0
 14 34  1  0
 14 35  1  0
 15 36  1  0
 15 37  1  0
 16 38  1  0
 17 39  1  0
 18 40  1  0
 18 41  1  0
 19 42  1  0
 19 43  1  0
 20 44  1  0
 21 45  1  0
 21 46  1  0
 22 47  1  0
 22 48  1  0
M  END
>  <Energy>  (1079) 
409.73651086823338

>  <compound_id>  (1079) 
8610

>  <target_id>  (1079) 
1

>  <reference_id>  (1079) 
81

>  <inspiration_ids>  (1079) 
[81, 44]

>  <energy_score>  (1079) 
398.77665094625246

>  <distance_score>  (1079) 
5.685800551619539

>  <path>  (1079) 
/opt/xchem-fragalysis-2/maxwin/BulkDock/SCRATCH/511016/C8610-P81/C8610-P81.minimised.mol

>  <scratch_subdir>  (1079) 
/opt/xchem-fragalysis-2/maxwin/BulkDock/SCRATCH/511016/C8610-P81

>  <fragmenstein_runtime>  (1079) 
7.706970930099487

>  <fragmenstein_outcome>  (1079) 
too moved

>  <fragmenstein_mode>  (1079) 
expansion

>  <fragmenstein_error>  (1079) 


$$$$
C8610-P44
     RDKit          3D

 48 50  0  0  0  0  0  0  0  0999 V2000
    5.2872    7.4034   22.0082 C   0  0  0  0  0  0  0  0  0  0  0  0
    4.3644    6.4813   21.1995 C   0  0  0  0  0  0  0  0  0  0  0  0
    5.1630    5.4790   20.3765 N   0  0  0  0  0  0  0  0  0  0  0  0
    6.5226    6.0534   19.5025 S   0  0  0  0  0  0  0  0  0  0  0  0
    7.5946    6.2102   20.4663 O   0  0  0  0  0  0  0  0  0  0  0  0
    6.0783    7.1712   18.6960 O   0  0  0  0  0  0  0  0  0  0  0  0
    7.2488    4.9682   18.3490 C   0  0  0  0  0  0  0  0  0  0  0  0
    7.8394    3.7061   18.5605 C   0  0  0  0  0  0  0  0  0  0  0  0
    8.4984    3.2476   17.4882 N   0  0  0  0  0  0  0  0  0  0  0  0
    8.3631    4.2395   16.5874 N   0  0  0  0  0  0  0  0  0  0  0  0
    9.1421    4.1770   15.3600 C   0  0  0  0  0  0  0  0  0  0  0  0
    8.5804    4.9904   14.1809 C   0  0  0  0  0  0  0  0  0  0  0  0
    9.4485    6.2386   14.1167 C   0  0  0  0  0  0  0  0  0  0  0  0
   10.8286    5.7052   14.4559 C   0  0  0  0  0  0  0  0  0  0  0  0
   10.5736    4.7049   15.5776 C   0  0  0  0  0  0  0  0  0  0  0  0
    7.5950    5.2721   17.0448 C   0  0  0  0  0  0  0  0  0  0  0  0
    3.2853    5.8653   22.1510 C   0  0  0  0  0  0  0  0  0  0  0  0
    2.1455    5.1343   21.4182 C   0  0  0  0  0  0  0  0  0  0  0  0
    1.4881    4.0550   22.2802 C   0  0  0  0  0  0  0  0  0  0  0  0
    1.3622    4.4779   23.6689 N   0  0  0  0  0  0  0  0  0  0  0  0
    2.6677    4.6449   24.3049 C   0  0  0  0  0  0  0  0  0  0  0  0
    3.8024    5.0279   23.3349 C   0  0  0  0  0  0  0  0  0  0  0  0
    4.7109    8.0455   22.6832 H   0  0  0  0  0  0  0  0  0  0  0  0
    5.8536    8.0748   21.3552 H   0  0  0  0  0  0  0  0  0  0  0  0
    6.0049    6.8348   22.6080 H   0  0  0  0  0  0  0  0  0  0  0  0
    3.8273    7.1037   20.4708 H   0  0  0  0  0  0  0  0  0  0  0  0
    5.4019    4.6283   20.9004 H   0  0  0  0  0  0  0  0  0  0  0  0
    7.8504    3.0905   19.4449 H   0  0  0  0  0  0  0  0  0  0  0  0
    9.1665    3.1170   15.0767 H   0  0  0  0  0  0  0  0  0  0  0  0
    7.5142    5.2229   14.2558 H   0  0  0  0  0  0  0  0  0  0  0  0
    8.7253    4.4241   13.2526 H   0  0  0  0  0  0  0  0  0  0  0  0
    9.1281    6.9739   14.8631 H   0  0  0  0  0  0  0  0  0  0  0  0
    9.4183    6.7135   13.1319 H   0  0  0  0  0  0  0  0  0  0  0  0
   11.5203    6.4974   14.7565 H   0  0  0  0  0  0  0  0  0  0  0  0
   11.2584    5.1915   13.5876 H   0  0  0  0  0  0  0  0  0  0  0  0
   11.3077    3.8927   15.5482 H   0  0  0  0  0  0  0  0  0  0  0  0
   10.6799    5.2041   16.5485 H   0  0  0  0  0  0  0  0  0  0  0  0
    7.4169    6.1680   16.4672 H   0  0  0  0  0  0  0  0  0  0  0  0
    2.8003    6.7382   22.6182 H   0  0  0  0  0  0  0  0  0  0  0  0
    2.5012    4.6781   20.4882 H   0  0  0  0  0  0  0  0  0  0  0  0
    1.3921    5.8756   21.1214 H   0  0  0  0  0  0  0  0  0  0  0  0
    2.0871    3.1426   22.2238 H   0  0  0  0  0  0  0  0  0  0  0  0
    0.4990    3.8215   21.8718 H   0  0  0  0  0  0  0  0  0  0  0  0
    0.7889    3.8305   24.2042 H   0  0  0  0  0  0  0  0  0  0  0  0
    2.9490    3.7214   24.8251 H   0  0  0  0  0  0  0  0  0  0  0  0
    2.5699    5.4211   25.0722 H   0  0  0  0  0  0  0  0  0  0  0  0
    4.5678    5.5714   23.8987 H   0  0  0  0  0  0  0  0  0  0  0  0
    4.2785    4.1162   22.9644 H   0  0  0  0  0  0  0  0  0  0  0  0
  1  2  1  0
  2  3  1  0
  3  4  1  0
  4  5  2  0
  4  6  2  0
  4  7  1  0
  7  8  1  0
  8  9  2  0
  9 10  1  0
 10 11  1  0
 11 12  1  0
 12 13  1  0
 13 14  1  0
 14 15  1  0
 10 16  1  0
  2 17  1  0
 17 18  1  0
 18 19  1  0
 19 20  1  0
 20 21  1  0
 21 22  1  0
 16  7  2  0
 22 17  1  0
 15 11  1  0
  1 23  1  0
  1 24  1  0
  1 25  1  0
  2 26  1  0
  3 27  1  0
  8 28  1  0
 11 29  1  0
 12 30  1  0
 12 31  1  0
 13 32  1  0
 13 33  1  0
 14 34  1  0
 14 35  1  0
 15 36  1  0
 15 37  1  0
 16 38  1  0
 17 39  1  0
 18 40  1  0
 18 41  1  0
 19 42  1  0
 19 43  1  0
 20 44  1  0
 21 45  1  0
 21 46  1  0
 22 47  1  0
 22 48  1  0
M  END
>  <Energy>  (1080) 
-23.170393094090738

>  <compound_id>  (1080) 
8610

>  <target_id>  (1080) 
1

>  <reference_id>  (1080) 
44

>  <inspiration_ids>  (1080) 
[81, 44]

>  <energy_score>  (1080) 
-34.13025301606734

>  <distance_score>  (1080) 
7.417367798121744

>  <path>  (1080) 
/opt/xchem-fragalysis-2/maxwin/BulkDock/SCRATCH/511016/C8610-P44/C8610-P44.minimised.mol

>  <scratch_subdir>  (1080) 
/opt/xchem-fragalysis-2/maxwin/BulkDock/SCRATCH/511016/C8610-P44

>  <fragmenstein_runtime>  (1080) 
7.68711256980896

>  <fragmenstein_outcome>  (1080) 
too moved

>  <fragmenstein_mode>  (1080) 
expansion

>  <fragmenstein_error>  (1080) 


$$$$
C8611-P81
     RDKit          3D

 48 50  0  0  0  0  0  0  0  0999 V2000
    7.9323   -0.8483   19.8431 O   0  0  0  0  0  0  0  0  0  0  0  0
    7.2015    0.3681   20.0252 S   0  0  0  0  0  0  0  0  0  0  0  0
    7.7134    1.4236   20.9289 O   0  0  0  0  0  0  0  0  0  0  0  0
    5.5333    0.1194   21.6231 N   0  0  0  0  0  0  0  0  0  0  0  0
    3.9931    1.1291   22.0408 C   0  0  0  0  0  0  0  0  0  0  0  0
    3.3313    2.1711   23.2188 C   0  0  0  0  0  0  0  0  0  0  0  0
    2.7937    2.0139   24.6988 C   0  0  0  0  0  0  0  0  0  0  0  0
    3.4343    1.0517   25.7220 C   0  0  0  0  0  0  0  0  0  0  0  0
    3.0140    1.3558   27.1736 C   0  0  0  0  0  0  0  0  0  0  0  0
    1.6804    1.9420   27.2872 N   0  0  0  0  0  0  0  0  0  0  0  0
    1.6093    3.2366   26.6012 C   0  0  0  0  0  0  0  0  0  0  0  0
    2.5512    3.3839   25.3899 C   0  0  0  0  0  0  0  0  0  0  0  0
    7.7469    1.6590   18.2999 C   0  0  0  0  0  0  0  0  0  0  0  0
    8.4433    1.0898   17.1244 C   0  0  0  0  0  0  0  0  0  0  0  0
    8.8110    2.0082   16.2294 N   0  0  0  0  0  0  0  0  0  0  0  0
    8.2519    3.1424   16.6994 N   0  0  0  0  0  0  0  0  0  0  0  0
    8.3897    4.3856   15.9633 C   0  0  0  0  0  0  0  0  0  0  0  0
    8.5952    5.6210   16.8509 C   0  0  0  0  0  0  0  0  0  0  0  0
    9.2798    6.6630   15.9666 C   0  0  0  0  0  0  0  0  0  0  0  0
    9.6851    5.9398   14.6872 C   0  0  0  0  0  0  0  0  0  0  0  0
    9.5996    4.4607   15.0267 C   0  0  0  0  0  0  0  0  0  0  0  0
    7.4966    2.9701   17.8364 C   0  0  0  0  0  0  0  0  0  0  0  0
    5.4640   -0.8908   21.7465 H   0  0  0  0  0  0  0  0  0  0  0  0
    3.2464    0.5318   21.6594 H   0  0  0  0  0  0  0  0  0  0  0  0
    3.4825    1.6460   21.2265 H   0  0  0  0  0  0  0  0  0  0  0  0
    3.7411    3.1876   23.1207 H   0  0  0  0  0  0  0  0  0  0  0  0
    2.3911    2.4362   22.6999 H   0  0  0  0  0  0  0  0  0  0  0  0
    1.7668    1.7051   24.5739 H   0  0  0  0  0  0  0  0  0  0  0  0
    3.1994    0.0106   25.4897 H   0  0  0  0  0  0  0  0  0  0  0  0
    4.5200    1.0829   25.7131 H   0  0  0  0  0  0  0  0  0  0  0  0
    3.7453    2.0303   27.6374 H   0  0  0  0  0  0  0  0  0  0  0  0
    3.0500    0.4294   27.7582 H   0  0  0  0  0  0  0  0  0  0  0  0
    1.0074    1.2988   26.8765 H   0  0  0  0  0  0  0  0  0  0  0  0
    0.5737    3.3904   26.2749 H   0  0  0  0  0  0  0  0  0  0  0  0
    1.8238    4.0376   27.3182 H   0  0  0  0  0  0  0  0  0  0  0  0
    3.4998    3.8173   25.7249 H   0  0  0  0  0  0  0  0  0  0  0  0
    2.1082    4.0970   24.6841 H   0  0  0  0  0  0  0  0  0  0  0  0
    8.6687    0.0598   16.9222 H   0  0  0  0  0  0  0  0  0  0  0  0
    7.4657    4.4992   15.3813 H   0  0  0  0  0  0  0  0  0  0  0  0
    9.2413    5.3888   17.7073 H   0  0  0  0  0  0  0  0  0  0  0  0
    7.6481    5.9976   17.2519 H   0  0  0  0  0  0  0  0  0  0  0  0
   10.1564    7.0752   16.4785 H   0  0  0  0  0  0  0  0  0  0  0  0
    8.6094    7.4994   15.7420 H   0  0  0  0  0  0  0  0  0  0  0  0
   10.6830    6.2297   14.3454 H   0  0  0  0  0  0  0  0  0  0  0  0
    8.9753    6.1801   13.8864 H   0  0  0  0  0  0  0  0  0  0  0  0
   10.5158    4.1377   15.5372 H   0  0  0  0  0  0  0  0  0  0  0  0
    9.4797    3.8475   14.1288 H   0  0  0  0  0  0  0  0  0  0  0  0
    6.9291    3.7993   18.2323 H   0  0  0  0  0  0  0  0  0  0  0  0
  1  2  2  0
  2  3  2  0
  2  4  1  0
  4  5  1  0
  5  6  1  0
  6  7  1  0
  7  8  1  0
  8  9  1  0
  9 10  1  0
 10 11  1  0
 11 12  1  0
  2 13  1  0
 13 14  1  0
 14 15  2  0
 15 16  1  0
 16 17  1  0
 17 18  1  0
 18 19  1  0
 19 20  1  0
 20 21  1  0
 16 22  1  0
 12  7  1  0
 22 13  2  0
 21 17  1  0
  4 23  1  0
  5 24  1  0
  5 25  1  0
  6 26  1  0
  6 27  1  0
  7 28  1  0
  8 29  1  0
  8 30  1  0
  9 31  1  0
  9 32  1  0
 10 33  1  0
 11 34  1  0
 11 35  1  0
 12 36  1  0
 12 37  1  0
 14 38  1  0
 17 39  1  0
 18 40  1  0
 18 41  1  0
 19 42  1  0
 19 43  1  0
 20 44  1  0
 20 45  1  0
 21 46  1  0
 21 47  1  0
 22 48  1  0
M  END
>  <Energy>  (1081) 
320.64470414547321

>  <compound_id>  (1081) 
8611

>  <target_id>  (1081) 
1

>  <reference_id>  (1081) 
81

>  <inspiration_ids>  (1081) 
[81, 44]

>  <energy_score>  (1081) 
302.68051599500575

>  <distance_score>  (1081) 
5.35301364091628

>  <path>  (1081) 
/opt/xchem-fragalysis-2/maxwin/BulkDock/SCRATCH/511016/C8611-P81/C8611-P81.minimised.mol

>  <scratch_subdir>  (1081) 
/opt/xchem-fragalysis-2/maxwin/BulkDock/SCRATCH/511016/C8611-P81

>  <fragmenstein_runtime>  (1081) 
7.964111328125

>  <fragmenstein_outcome>  (1081) 
too moved

>  <fragmenstein_mode>  (1081) 
expansion

>  <fragmenstein_error>  (1081) 


$$$$
C8611-P44
     RDKit          3D

 48 50  0  0  0  0  0  0  0  0999 V2000
    9.1284    0.2229   17.8386 O   0  0  0  0  0  0  0  0  0  0  0  0
    8.3429    1.3398   18.3207 S   0  0  0  0  0  0  0  0  0  0  0  0
    8.8057    2.2423   19.3452 O   0  0  0  0  0  0  0  0  0  0  0  0
    6.9178    0.6206   18.7963 N   0  0  0  0  0  0  0  0  0  0  0  0
    6.3551    0.4090   20.1791 C   0  0  0  0  0  0  0  0  0  0  0  0
    4.6547    0.8525   21.4238 C   0  0  0  0  0  0  0  0  0  0  0  0
    4.1773    1.8990   23.1062 C   0  0  0  0  0  0  0  0  0  0  0  0
    2.9104    2.8897   22.8088 C   0  0  0  0  0  0  0  0  0  0  0  0
    2.0230    3.3300   23.9780 C   0  0  0  0  0  0  0  0  0  0  0  0
    2.7725    4.0374   24.9967 N   0  0  0  0  0  0  0  0  0  0  0  0
    3.9047    3.2395   25.4173 C   0  0  0  0  0  0  0  0  0  0  0  0
    4.8531    2.8938   24.2432 C   0  0  0  0  0  0  0  0  0  0  0  0
    8.4006    2.3296   16.9295 C   0  0  0  0  0  0  0  0  0  0  0  0
    9.2785    2.1452   15.8442 C   0  0  0  0  0  0  0  0  0  0  0  0
    9.2266    3.1562   14.9693 N   0  0  0  0  0  0  0  0  0  0  0  0
    8.3189    3.9964   15.5208 N   0  0  0  0  0  0  0  0  0  0  0  0
    8.0242    5.2604   14.8661 C   0  0  0  0  0  0  0  0  0  0  0  0
    6.5209    5.5694   14.7436 C   0  0  0  0  0  0  0  0  0  0  0  0
    6.2836    6.7773   15.6407 C   0  0  0  0  0  0  0  0  0  0  0  0
    7.5876    7.5498   15.5444 C   0  0  0  0  0  0  0  0  0  0  0  0
    8.6476    6.4589   15.5993 C   0  0  0  0  0  0  0  0  0  0  0  0
    7.8010    3.5423   16.6982 C   0  0  0  0  0  0  0  0  0  0  0  0
    6.4933    0.0168   18.0974 H   0  0  0  0  0  0  0  0  0  0  0  0
    7.0182    1.3047   20.4599 H   0  0  0  0  0  0  0  0  0  0  0  0
    6.7639   -0.6241   20.3469 H   0  0  0  0  0  0  0  0  0  0  0  0
    3.6667    1.0016   21.0613 H   0  0  0  0  0  0  0  0  0  0  0  0
    4.6206   -0.2001   21.8321 H   0  0  0  0  0  0  0  0  0  0  0  0
    3.9558    1.1475   23.8740 H   0  0  0  0  0  0  0  0  0  0  0  0
    3.3218    3.8447   22.4406 H   0  0  0  0  0  0  0  0  0  0  0  0
    2.3143    2.5379   21.9703 H   0  0  0  0  0  0  0  0  0  0  0  0
    1.5046    2.5010   24.4425 H   0  0  0  0  0  0  0  0  0  0  0  0
    1.2472    4.0018   23.5928 H   0  0  0  0  0  0  0  0  0  0  0  0
    2.1717    4.2486   25.7923 H   0  0  0  0  0  0  0  0  0  0  0  0
    4.4699    3.8133   26.1611 H   0  0  0  0  0  0  0  0  0  0  0  0
    3.5701    2.3213   25.9161 H   0  0  0  0  0  0  0  0  0  0  0  0
    5.6822    2.4369   24.8005 H   0  0  0  0  0  0  0  0  0  0  0  0
    5.1959    3.8226   23.7811 H   0  0  0  0  0  0  0  0  0  0  0  0
    9.9726    1.3342   15.6656 H   0  0  0  0  0  0  0  0  0  0  0  0
    8.4429    5.1899   13.8533 H   0  0  0  0  0  0  0  0  0  0  0  0
    5.8651    4.7333   15.0057 H   0  0  0  0  0  0  0  0  0  0  0  0
    6.2956    5.8450   13.7055 H   0  0  0  0  0  0  0  0  0  0  0  0
    6.1086    6.4545   16.6736 H   0  0  0  0  0  0  0  0  0  0  0  0
    5.4233    7.3703   15.3176 H   0  0  0  0  0  0  0  0  0  0  0  0
    7.7011    8.2795   16.3511 H   0  0  0  0  0  0  0  0  0  0  0  0
    7.6434    8.0836   14.5884 H   0  0  0  0  0  0  0  0  0  0  0  0
    8.8781    6.2212   16.6450 H   0  0  0  0  0  0  0  0  0  0  0  0
    9.5813    6.7817   15.1270 H   0  0  0  0  0  0  0  0  0  0  0  0
    7.0978    4.1136   17.2870 H   0  0  0  0  0  0  0  0  0  0  0  0
  1  2  2  0
  2  3  2  0
  2  4  1  0
  4  5  1  0
  5  6  1  0
  6  7  1  0
  7  8  1  0
  8  9  1  0
  9 10  1  0
 10 11  1  0
 11 12  1  0
  2 13  1  0
 13 14  1  0
 14 15  2  0
 15 16  1  0
 16 17  1  0
 17 18  1  0
 18 19  1  0
 19 20  1  0
 20 21  1  0
 16 22  1  0
 12  7  1  0
 22 13  2  0
 21 17  1  0
  4 23  1  0
  5 24  1  0
  5 25  1  0
  6 26  1  0
  6 27  1  0
  7 28  1  0
  8 29  1  0
  8 30  1  0
  9 31  1  0
  9 32  1  0
 10 33  1  0
 11 34  1  0
 11 35  1  0
 12 36  1  0
 12 37  1  0
 14 38  1  0
 17 39  1  0
 18 40  1  0
 18 41  1  0
 19 42  1  0
 19 43  1  0
 20 44  1  0
 20 45  1  0
 21 46  1  0
 21 47  1  0
 22 48  1  0
M  END
>  <Energy>  (1082) 
254.27624748584697

>  <compound_id>  (1082) 
8611

>  <target_id>  (1082) 
1

>  <reference_id>  (1082) 
44

>  <inspiration_ids>  (1082) 
[81, 44]

>  <energy_score>  (1082) 
236.3120593353816

>  <distance_score>  (1082) 
6.406319978629679

>  <path>  (1082) 
/opt/xchem-fragalysis-2/maxwin/BulkDock/SCRATCH/511016/C8611-P44/C8611-P44.minimised.mol

>  <scratch_subdir>  (1082) 
/opt/xchem-fragalysis-2/maxwin/BulkDock/SCRATCH/511016/C8611-P44

>  <fragmenstein_runtime>  (1082) 
11.08980417251587

>  <fragmenstein_outcome>  (1082) 
too moved

>  <fragmenstein_mode>  (1082) 
expansion

>  <fragmenstein_error>  (1082) 


$$$$
C8612-P81
     RDKit          3D

 44 46  0  0  0  0  0  0  0  0999 V2000
    4.6371   -2.2187   18.3376 O   0  0  0  0  0  0  0  0  0  0  0  0
    4.0147   -1.8132   17.4321 C   0  0  0  0  0  0  0  0  0  0  0  0
    2.4009   -0.7598   17.4448 N   0  0  0  0  0  0  0  0  0  0  0  0
    1.5806   -0.3362   18.4918 C   0  0  0  0  0  0  0  0  0  0  0  0
    1.1391    1.2753   17.9896 C   0  0  0  0  0  0  0  0  0  0  0  0
   -0.1619    1.3235   17.1834 C   0  0  0  0  0  0  0  0  0  0  0  0
   -0.4142    2.7491   16.6685 C   0  0  0  0  0  0  0  0  0  0  0  0
   -0.5218    3.7995   17.6724 N   0  0  0  0  0  0  0  0  0  0  0  0
    0.3850    3.7199   18.8066 C   0  0  0  0  0  0  0  0  0  0  0  0
    1.4378    2.6257   18.7477 C   0  0  0  0  0  0  0  0  0  0  0  0
    4.7510   -2.4942   15.7688 C   0  0  0  0  0  0  0  0  0  0  0  0
    4.7213   -3.8370   15.1494 C   0  0  0  0  0  0  0  0  0  0  0  0
    4.8559   -3.4222   13.7816 C   0  0  0  0  0  0  0  0  0  0  0  0
    5.7443   -2.4371   13.6754 N   0  0  0  0  0  0  0  0  0  0  0  0
    6.1813   -2.3162   14.9641 N   0  0  0  0  0  0  0  0  0  0  0  0
    7.5264   -1.7131   15.1211 C   0  0  0  0  0  0  0  0  0  0  0  0
    8.7145   -2.6062   14.8743 C   0  0  0  0  0  0  0  0  0  0  0  0
   10.0085   -1.8257   15.1381 C   0  0  0  0  0  0  0  0  0  0  0  0
    9.5624   -0.3891   15.3396 C   0  0  0  0  0  0  0  0  0  0  0  0
    8.1474   -0.5106   15.9202 C   0  0  0  0  0  0  0  0  0  0  0  0
    2.0283   -0.6173   16.4924 H   0  0  0  0  0  0  0  0  0  0  0  0
    1.6068   -0.8184   19.4331 H   0  0  0  0  0  0  0  0  0  0  0  0
    0.6444   -0.8443   18.1937 H   0  0  0  0  0  0  0  0  0  0  0  0
    1.8226    1.4542   17.1497 H   0  0  0  0  0  0  0  0  0  0  0  0
   -1.0057    0.9107   17.7294 H   0  0  0  0  0  0  0  0  0  0  0  0
   -0.0605    0.6672   16.3077 H   0  0  0  0  0  0  0  0  0  0  0  0
    0.3908    3.0169   15.9717 H   0  0  0  0  0  0  0  0  0  0  0  0
   -1.3371    2.7464   16.0774 H   0  0  0  0  0  0  0  0  0  0  0  0
   -0.4728    4.7180   17.2341 H   0  0  0  0  0  0  0  0  0  0  0  0
   -0.1740    3.6471   19.7434 H   0  0  0  0  0  0  0  0  0  0  0  0
    0.9025    4.6852   18.8937 H   0  0  0  0  0  0  0  0  0  0  0  0
    2.2315    3.1238   18.1679 H   0  0  0  0  0  0  0  0  0  0  0  0
    1.8313    2.4904   19.7589 H   0  0  0  0  0  0  0  0  0  0  0  0
    4.1390   -4.6721   15.5270 H   0  0  0  0  0  0  0  0  0  0  0  0
    4.4271   -3.8586   12.8862 H   0  0  0  0  0  0  0  0  0  0  0  0
    7.5868   -1.3072   14.1009 H   0  0  0  0  0  0  0  0  0  0  0  0
    8.5484   -2.8289   13.8566 H   0  0  0  0  0  0  0  0  0  0  0  0
    8.7353   -3.6348   15.1802 H   0  0  0  0  0  0  0  0  0  0  0  0
   10.5185   -2.1851   16.0330 H   0  0  0  0  0  0  0  0  0  0  0  0
   10.7489   -1.9226   14.3395 H   0  0  0  0  0  0  0  0  0  0  0  0
    9.5341    0.1351   14.3782 H   0  0  0  0  0  0  0  0  0  0  0  0
   10.2356    0.1648   16.0004 H   0  0  0  0  0  0  0  0  0  0  0  0
    7.6688    0.4566   15.8569 H   0  0  0  0  0  0  0  0  0  0  0  0
    8.2454   -0.6037   16.9834 H   0  0  0  0  0  0  0  0  0  0  0  0
  1  2  2  0
  2  3  1  0
  3  4  1  0
  4  5  1  0
  5  6  1  0
  6  7  1  0
  7  8  1  0
  8  9  1  0
  9 10  1  0
  2 11  1  0
 11 12  2  0
 12 13  1  0
 13 14  2  0
 14 15  1  0
 15 16  1  0
 16 17  1  0
 17 18  1  0
 18 19  1  0
 19 20  1  0
 10  5  1  0
 15 11  1  0
 20 16  1  0
  3 21  1  0
  4 22  1  0
  4 23  1  0
  5 24  1  0
  6 25  1  0
  6 26  1  0
  7 27  1  0
  7 28  1  0
  8 29  1  0
  9 30  1  0
  9 31  1  0
 10 32  1  0
 10 33  1  0
 12 34  1  0
 13 35  1  0
 16 36  1  0
 17 37  1  0
 17 38  1  0
 18 39  1  0
 18 40  1  0
 19 41  1  0
 19 42  1  0
 20 43  1  0
 20 44  1  0
M  END
>  <Energy>  (1083) 
307.76758072183497

>  <compound_id>  (1083) 
8612

>  <target_id>  (1083) 
1

>  <reference_id>  (1083) 
81

>  <inspiration_ids>  (1083) 
[81, 44]

>  <energy_score>  (1083) 
304.3831299422073

>  <distance_score>  (1083) 
9.273066963622577

>  <path>  (1083) 
/opt/xchem-fragalysis-2/maxwin/BulkDock/SCRATCH/511016/C8612-P81/C8612-P81.minimised.mol

>  <scratch_subdir>  (1083) 
/opt/xchem-fragalysis-2/maxwin/BulkDock/SCRATCH/511016/C8612-P81

>  <fragmenstein_runtime>  (1083) 
7.5104594230651855

>  <fragmenstein_outcome>  (1083) 
too moved

>  <fragmenstein_mode>  (1083) 
expansion

>  <fragmenstein_error>  (1083) 


$$$$
C8612-P44
     RDKit          3D

 44 46  0  0  0  0  0  0  0  0999 V2000
    7.3983    0.1978   19.6681 O   0  0  0  0  0  0  0  0  0  0  0  0
    7.2700    1.3891   19.9783 C   0  0  0  0  0  0  0  0  0  0  0  0
    6.1306    2.0630   21.2846 N   0  0  0  0  0  0  0  0  0  0  0  0
    4.7781    1.1834   22.3941 C   0  0  0  0  0  0  0  0  0  0  0  0
    4.1151    2.3749   23.5258 C   0  0  0  0  0  0  0  0  0  0  0  0
    2.8882    3.2096   23.1070 C   0  0  0  0  0  0  0  0  0  0  0  0
    1.9240    3.5433   24.2491 C   0  0  0  0  0  0  0  0  0  0  0  0
    2.6427    3.8756   25.4663 N   0  0  0  0  0  0  0  0  0  0  0  0
    3.4354    2.7684   25.9856 C   0  0  0  0  0  0  0  0  0  0  0  0
    3.9480    1.7715   24.9377 C   0  0  0  0  0  0  0  0  0  0  0  0
    8.1143    2.2824   19.0159 C   0  0  0  0  0  0  0  0  0  0  0  0
    8.5763    1.6153   17.8460 C   0  0  0  0  0  0  0  0  0  0  0  0
    8.8994    2.5561   16.8825 C   0  0  0  0  0  0  0  0  0  0  0  0
    8.7754    3.7705   17.3789 N   0  0  0  0  0  0  0  0  0  0  0  0
    8.5300    3.5838   18.7087 N   0  0  0  0  0  0  0  0  0  0  0  0
    8.9189    4.7365   19.5117 C   0  0  0  0  0  0  0  0  0  0  0  0
   10.1028    5.5840   18.9834 C   0  0  0  0  0  0  0  0  0  0  0  0
    9.5138    6.7248   18.1522 C   0  0  0  0  0  0  0  0  0  0  0  0
    8.0102    6.6923   18.3783 C   0  0  0  0  0  0  0  0  0  0  0  0
    7.8049    5.7941   19.5894 C   0  0  0  0  0  0  0  0  0  0  0  0
    6.1631    3.0799   21.2718 H   0  0  0  0  0  0  0  0  0  0  0  0
    4.1620    0.8937   21.5486 H   0  0  0  0  0  0  0  0  0  0  0  0
    5.0854    0.3403   23.0567 H   0  0  0  0  0  0  0  0  0  0  0  0
    4.8917    3.1465   23.6458 H   0  0  0  0  0  0  0  0  0  0  0  0
    2.3564    2.7616   22.2712 H   0  0  0  0  0  0  0  0  0  0  0  0
    3.2619    4.1655   22.7106 H   0  0  0  0  0  0  0  0  0  0  0  0
    1.3135    4.4026   23.9483 H   0  0  0  0  0  0  0  0  0  0  0  0
    1.2233    2.7307   24.4411 H   0  0  0  0  0  0  0  0  0  0  0  0
    2.0027    4.2185   26.1819 H   0  0  0  0  0  0  0  0  0  0  0  0
    2.8517    2.2171   26.7329 H   0  0  0  0  0  0  0  0  0  0  0  0
    4.2913    3.1963   26.5201 H   0  0  0  0  0  0  0  0  0  0  0  0
    4.9103    1.3716   25.2806 H   0  0  0  0  0  0  0  0  0  0  0  0
    3.2755    0.9158   24.9086 H   0  0  0  0  0  0  0  0  0  0  0  0
    8.4585    0.5622   17.6497 H   0  0  0  0  0  0  0  0  0  0  0  0
    9.1655    2.4200   15.8438 H   0  0  0  0  0  0  0  0  0  0  0  0
    9.2689    4.3291   20.4625 H   0  0  0  0  0  0  0  0  0  0  0  0
   10.8415    5.0181   18.4135 H   0  0  0  0  0  0  0  0  0  0  0  0
   10.6330    6.0218   19.8395 H   0  0  0  0  0  0  0  0  0  0  0  0
    9.7468    6.6052   17.0887 H   0  0  0  0  0  0  0  0  0  0  0  0
    9.9385    7.6833   18.4703 H   0  0  0  0  0  0  0  0  0  0  0  0
    7.5066    6.2694   17.5014 H   0  0  0  0  0  0  0  0  0  0  0  0
    7.5972    7.6933   18.5379 H   0  0  0  0  0  0  0  0  0  0  0  0
    7.9288    6.3929   20.5007 H   0  0  0  0  0  0  0  0  0  0  0  0
    6.7942    5.3734   19.5905 H   0  0  0  0  0  0  0  0  0  0  0  0
  1  2  2  0
  2  3  1  0
  3  4  1  0
  4  5  1  0
  5  6  1  0
  6  7  1  0
  7  8  1  0
  8  9  1  0
  9 10  1  0
  2 11  1  0
 11 12  2  0
 12 13  1  0
 13 14  2  0
 14 15  1  0
 15 16  1  0
 16 17  1  0
 17 18  1  0
 18 19  1  0
 19 20  1  0
 10  5  1  0
 15 11  1  0
 20 16  1  0
  3 21  1  0
  4 22  1  0
  4 23  1  0
  5 24  1  0
  6 25  1  0
  6 26  1  0
  7 27  1  0
  7 28  1  0
  8 29  1  0
  9 30  1  0
  9 31  1  0
 10 32  1  0
 10 33  1  0
 12 34  1  0
 13 35  1  0
 16 36  1  0
 17 37  1  0
 17 38  1  0
 18 39  1  0
 18 40  1  0
 19 41  1  0
 19 42  1  0
 20 43  1  0
 20 44  1  0
M  END
>  <Energy>  (1084) 
169.12655406952894

>  <compound_id>  (1084) 
8612

>  <target_id>  (1084) 
1

>  <reference_id>  (1084) 
44

>  <inspiration_ids>  (1084) 
[81, 44]

>  <energy_score>  (1084) 
165.74210328990867

>  <distance_score>  (1084) 
6.491494939839756

>  <path>  (1084) 
/opt/xchem-fragalysis-2/maxwin/BulkDock/SCRATCH/511016/C8612-P44/C8612-P44.minimised.mol

>  <scratch_subdir>  (1084) 
/opt/xchem-fragalysis-2/maxwin/BulkDock/SCRATCH/511016/C8612-P44

>  <fragmenstein_runtime>  (1084) 
6.622864484786987

>  <fragmenstein_outcome>  (1084) 
too moved

>  <fragmenstein_mode>  (1084) 
expansion

>  <fragmenstein_error>  (1084) 


$$$$
C8613-P81
     RDKit          3D

 43 45  0  0  0  0  0  0  0  0999 V2000
    3.2629    1.6680   21.2673 O   0  0  0  0  0  0  0  0  0  0  0  0
    3.9639    1.0950   22.0164 C   0  0  0  0  0  0  0  0  0  0  0  0
    5.5384    0.1135   21.7023 N   0  0  0  0  0  0  0  0  0  0  0  0
    6.5782   -0.1359   20.1693 C   0  0  0  0  0  0  0  0  0  0  0  0
    7.8195   -0.4689   20.2446 C   0  0  0  0  0  0  0  0  0  0  0  0
    8.4299   -0.8768   19.1503 N   0  0  0  0  0  0  0  0  0  0  0  0
    7.8053   -0.2344   18.1927 N   0  0  0  0  0  0  0  0  0  0  0  0
    8.2026    0.1185   16.8022 C   0  0  0  0  0  0  0  0  0  0  0  0
    8.5568    1.6167   16.6462 C   0  0  0  0  0  0  0  0  0  0  0  0
    9.9541    1.7241   16.0460 C   0  0  0  0  0  0  0  0  0  0  0  0
   10.4341    0.3157   15.7530 C   0  0  0  0  0  0  0  0  0  0  0  0
    9.2135   -0.5748   15.8624 C   0  0  0  0  0  0  0  0  0  0  0  0
    6.6357   -0.5380   18.7925 C   0  0  0  0  0  0  0  0  0  0  0  0
    3.6940    1.2261   23.7719 N   0  0  0  0  0  0  0  0  0  0  0  0
    2.7432    2.0497   24.5624 C   0  0  0  0  0  0  0  0  0  0  0  0
    2.9284    1.8950   26.0876 C   0  0  0  0  0  0  0  0  0  0  0  0
    2.1681    2.9703   26.8729 C   0  0  0  0  0  0  0  0  0  0  0  0
    0.9876    3.4249   26.1493 N   0  0  0  0  0  0  0  0  0  0  0  0
    1.3519    4.1054   24.8956 C   0  0  0  0  0  0  0  0  0  0  0  0
    2.5981    3.5276   24.1937 C   0  0  0  0  0  0  0  0  0  0  0  0
    5.8429   -0.3061   22.4614 H   0  0  0  0  0  0  0  0  0  0  0  0
    8.3579   -0.4612   21.1233 H   0  0  0  0  0  0  0  0  0  0  0  0
    7.2829   -0.0997   16.2656 H   0  0  0  0  0  0  0  0  0  0  0  0
    8.4930    2.1861   17.5725 H   0  0  0  0  0  0  0  0  0  0  0  0
    7.8419    2.1110   15.9847 H   0  0  0  0  0  0  0  0  0  0  0  0
   10.6403    2.2382   16.7270 H   0  0  0  0  0  0  0  0  0  0  0  0
    9.9267    2.3200   15.1272 H   0  0  0  0  0  0  0  0  0  0  0  0
   10.8846    0.2502   14.7563 H   0  0  0  0  0  0  0  0  0  0  0  0
   11.2070   -0.0003   16.4556 H   0  0  0  0  0  0  0  0  0  0  0  0
    8.7705   -0.6244   14.8594 H   0  0  0  0  0  0  0  0  0  0  0  0
    9.4828   -1.5973   16.0882 H   0  0  0  0  0  0  0  0  0  0  0  0
    5.8999   -1.0282   18.1411 H   0  0  0  0  0  0  0  0  0  0  0  0
    4.3164    0.6188   24.2316 H   0  0  0  0  0  0  0  0  0  0  0  0
    1.7649    1.6755   24.3680 H   0  0  0  0  0  0  0  0  0  0  0  0
    3.9852    1.9369   26.3718 H   0  0  0  0  0  0  0  0  0  0  0  0
    2.5895    0.9008   26.3998 H   0  0  0  0  0  0  0  0  0  0  0  0
    2.8278    3.8208   27.0860 H   0  0  0  0  0  0  0  0  0  0  0  0
    1.8685    2.5595   27.8435 H   0  0  0  0  0  0  0  0  0  0  0  0
    0.4400    4.0653   26.7267 H   0  0  0  0  0  0  0  0  0  0  0  0
    0.4921    4.0350   24.2196 H   0  0  0  0  0  0  0  0  0  0  0  0
    1.5156    5.1729   25.0857 H   0  0  0  0  0  0  0  0  0  0  0  0
    2.5001    3.6548   23.1099 H   0  0  0  0  0  0  0  0  0  0  0  0
    3.4747    4.1038   24.5061 H   0  0  0  0  0  0  0  0  0  0  0  0
  1  2  2  0
  2  3  1  0
  3  4  1  0
  4  5  1  0
  5  6  2  0
  6  7  1  0
  7  8  1  0
  8  9  1  0
  9 10  1  0
 10 11  1  0
 11 12  1  0
  7 13  1  0
  2 14  1  0
 14 15  1  0
 15 16  1  0
 16 17  1  0
 17 18  1  0
 18 19  1  0
 19 20  1  0
 13  4  2  0
 20 15  1  0
 12  8  1  0
  3 21  1  0
  5 22  1  0
  8 23  1  0
  9 24  1  0
  9 25  1  0
 10 26  1  0
 10 27  1  0
 11 28  1  0
 11 29  1  0
 12 30  1  0
 12 31  1  0
 13 32  1  0
 14 33  1  0
 15 34  1  0
 16 35  1  0
 16 36  1  0
 17 37  1  0
 17 38  1  0
 18 39  1  0
 19 40  1  0
 19 41  1  0
 20 42  1  0
 20 43  1  0
M  END
>  <Energy>  (1085) 
245.50928941487709

>  <compound_id>  (1085) 
8613

>  <target_id>  (1085) 
1

>  <reference_id>  (1085) 
81

>  <inspiration_ids>  (1085) 
[81, 44]

>  <energy_score>  (1085) 
241.02332046597633

>  <distance_score>  (1085) 
5.88517387736704

>  <path>  (1085) 
/opt/xchem-fragalysis-2/maxwin/BulkDock/SCRATCH/511016/C8613-P81/C8613-P81.minimised.mol

>  <scratch_subdir>  (1085) 
/opt/xchem-fragalysis-2/maxwin/BulkDock/SCRATCH/511016/C8613-P81

>  <fragmenstein_runtime>  (1085) 
6.617711544036865

>  <fragmenstein_outcome>  (1085) 
too moved

>  <fragmenstein_mode>  (1085) 
expansion

>  <fragmenstein_error>  (1085) 


$$$$
C8613-P44
     RDKit          3D

 43 45  0  0  0  0  0  0  0  0999 V2000
    4.9064    0.5456   22.9314 O   0  0  0  0  0  0  0  0  0  0  0  0
    5.0922   -0.5713   22.5718 C   0  0  0  0  0  0  0  0  0  0  0  0
    6.0236   -0.9727   20.9157 N   0  0  0  0  0  0  0  0  0  0  0  0
    6.8842    0.1406   19.7208 C   0  0  0  0  0  0  0  0  0  0  0  0
    7.9098   -0.2042   18.8936 C   0  0  0  0  0  0  0  0  0  0  0  0
    8.6013    0.5181   18.0146 N   0  0  0  0  0  0  0  0  0  0  0  0
    8.1434    1.6903   18.3963 N   0  0  0  0  0  0  0  0  0  0  0  0
    8.2991    2.9258   17.6663 C   0  0  0  0  0  0  0  0  0  0  0  0
    8.9529    4.0716   18.4426 C   0  0  0  0  0  0  0  0  0  0  0  0
    9.6037    4.9708   17.3888 C   0  0  0  0  0  0  0  0  0  0  0  0
    9.3623    4.3018   16.0392 C   0  0  0  0  0  0  0  0  0  0  0  0
    9.0986    2.8418   16.3680 C   0  0  0  0  0  0  0  0  0  0  0  0
    7.4878    1.4743   19.5911 C   0  0  0  0  0  0  0  0  0  0  0  0
    4.8362   -1.8112   23.2442 N   0  0  0  0  0  0  0  0  0  0  0  0
    4.3638   -2.0912   24.6399 C   0  0  0  0  0  0  0  0  0  0  0  0
    3.9356   -0.8039   25.4618 C   0  0  0  0  0  0  0  0  0  0  0  0
    5.0526   -0.0161   26.1179 C   0  0  0  0  0  0  0  0  0  0  0  0
    5.7237   -0.8781   27.0847 N   0  0  0  0  0  0  0  0  0  0  0  0
    6.3343   -2.0001   26.3771 C   0  0  0  0  0  0  0  0  0  0  0  0
    5.3057   -2.8384   25.6165 C   0  0  0  0  0  0  0  0  0  0  0  0
    6.0017   -1.9811   20.7446 H   0  0  0  0  0  0  0  0  0  0  0  0
    8.3286   -1.0925   19.1403 H   0  0  0  0  0  0  0  0  0  0  0  0
    7.2829    3.2534   17.4116 H   0  0  0  0  0  0  0  0  0  0  0  0
    8.2042    4.6300   19.0151 H   0  0  0  0  0  0  0  0  0  0  0  0
    9.6958    3.7129   19.1623 H   0  0  0  0  0  0  0  0  0  0  0  0
   10.6765    5.0683   17.5852 H   0  0  0  0  0  0  0  0  0  0  0  0
    9.1818    5.9812   17.4064 H   0  0  0  0  0  0  0  0  0  0  0  0
   10.2077    4.4283   15.3566 H   0  0  0  0  0  0  0  0  0  0  0  0
    8.4780    4.7412   15.5618 H   0  0  0  0  0  0  0  0  0  0  0  0
    8.5411    2.3377   15.5732 H   0  0  0  0  0  0  0  0  0  0  0  0
   10.0408    2.3022   16.5015 H   0  0  0  0  0  0  0  0  0  0  0  0
    7.3515    2.3777   20.1381 H   0  0  0  0  0  0  0  0  0  0  0  0
    5.1871   -2.5532   22.6899 H   0  0  0  0  0  0  0  0  0  0  0  0
    3.6484   -2.8877   24.5021 H   0  0  0  0  0  0  0  0  0  0  0  0
    3.2970   -1.1216   26.3012 H   0  0  0  0  0  0  0  0  0  0  0  0
    3.3394   -0.1078   24.8829 H   0  0  0  0  0  0  0  0  0  0  0  0
    4.6240    0.8385   26.6535 H   0  0  0  0  0  0  0  0  0  0  0  0
    5.7603    0.3887   25.3915 H   0  0  0  0  0  0  0  0  0  0  0  0
    6.4565   -0.3416   27.5492 H   0  0  0  0  0  0  0  0  0  0  0  0
    7.1270   -1.6288   25.7247 H   0  0  0  0  0  0  0  0  0  0  0  0
    6.8260   -2.6432   27.1163 H   0  0  0  0  0  0  0  0  0  0  0  0
    5.7594   -3.7002   25.1279 H   0  0  0  0  0  0  0  0  0  0  0  0
    4.6604   -3.2906   26.3874 H   0  0  0  0  0  0  0  0  0  0  0  0
  1  2  2  0
  2  3  1  0
  3  4  1  0
  4  5  1  0
  5  6  2  0
  6  7  1  0
  7  8  1  0
  8  9  1  0
  9 10  1  0
 10 11  1  0
 11 12  1  0
  7 13  1  0
  2 14  1  0
 14 15  1  0
 15 16  1  0
 16 17  1  0
 17 18  1  0
 18 19  1  0
 19 20  1  0
 13  4  2  0
 20 15  1  0
 12  8  1  0
  3 21  1  0
  5 22  1  0
  8 23  1  0
  9 24  1  0
  9 25  1  0
 10 26  1  0
 10 27  1  0
 11 28  1  0
 11 29  1  0
 12 30  1  0
 12 31  1  0
 13 32  1  0
 14 33  1  0
 15 34  1  0
 16 35  1  0
 16 36  1  0
 17 37  1  0
 17 38  1  0
 18 39  1  0
 19 40  1  0
 19 41  1  0
 20 42  1  0
 20 43  1  0
M  END
>  <Energy>  (1086) 
176.15981948349719

>  <compound_id>  (1086) 
8613

>  <target_id>  (1086) 
1

>  <reference_id>  (1086) 
44

>  <inspiration_ids>  (1086) 
[81, 44]

>  <energy_score>  (1086) 
171.6738505345961

>  <distance_score>  (1086) 
7.499947244608088

>  <path>  (1086) 
/opt/xchem-fragalysis-2/maxwin/BulkDock/SCRATCH/511016/C8613-P44/C8613-P44.minimised.mol

>  <scratch_subdir>  (1086) 
/opt/xchem-fragalysis-2/maxwin/BulkDock/SCRATCH/511016/C8613-P44

>  <fragmenstein_runtime>  (1086) 
7.880455017089844

>  <fragmenstein_outcome>  (1086) 
too moved

>  <fragmenstein_mode>  (1086) 
expansion

>  <fragmenstein_error>  (1086) 


$$$$
C8615-P81
     RDKit          3D

 50 51  0  0  0  0  0  0  0  0999 V2000
    3.4025   -2.3179   24.9823 C   0  0  0  0  0  0  0  0  0  0  0  0
    4.4446   -1.2467   24.7767 C   0  0  0  0  0  0  0  0  0  0  0  0
    5.1611   -1.6500   23.3917 N   0  0  0  0  0  0  0  0  0  0  0  0
    5.6507   -0.6729   21.9045 C   0  0  0  0  0  0  0  0  0  0  0  0
    6.9820   -1.1400   20.4133 C   0  0  0  0  0  0  0  0  0  0  0  0
    6.1155   -2.7251   20.9287 C   0  0  0  0  0  0  0  0  0  0  0  0
    6.9911   -0.0230   18.8757 N   0  0  0  0  0  0  0  0  0  0  0  0
    5.9029   -1.1913   18.2600 C   0  0  0  0  0  0  0  0  0  0  0  0
    8.2082    0.2754   17.6839 C   0  0  0  0  0  0  0  0  0  0  0  0
    9.2609   -0.2388   17.5262 O   0  0  0  0  0  0  0  0  0  0  0  0
    8.0657    1.4393   16.7081 C   0  0  0  0  0  0  0  0  0  0  0  0
    9.1509    1.6785   15.7828 C   0  0  0  0  0  0  0  0  0  0  0  0
    9.2530    2.9431   15.3625 N   0  0  0  0  0  0  0  0  0  0  0  0
    8.2477    3.5485   16.0074 N   0  0  0  0  0  0  0  0  0  0  0  0
    7.5553    2.7231   16.8414 C   0  0  0  0  0  0  0  0  0  0  0  0
    5.1144   -1.1587   26.2478 C   0  0  0  0  0  0  0  0  0  0  0  0
    6.2326   -1.5069   26.5171 O   0  0  0  0  0  0  0  0  0  0  0  0
    4.0457   -0.6438   27.1116 N   0  0  0  0  0  0  0  0  0  0  0  0
    3.9799   -0.4998   28.5988 C   0  0  0  0  0  0  0  0  0  0  0  0
    2.5896   -0.1469   29.1607 C   0  0  0  0  0  0  0  0  0  0  0  0
    1.8155    0.7430   28.2111 C   0  0  0  0  0  0  0  0  0  0  0  0
    2.7910    1.6113   27.4507 C   0  0  0  0  0  0  0  0  0  0  0  0
    4.1186    0.8725   27.1864 C   0  0  0  0  0  0  0  0  0  0  0  0
    2.6440   -1.9803   25.6892 H   0  0  0  0  0  0  0  0  0  0  0  0
    3.8292   -3.2117   25.4143 H   0  0  0  0  0  0  0  0  0  0  0  0
    2.9435   -2.6046   24.0401 H   0  0  0  0  0  0  0  0  0  0  0  0
    4.0170   -0.2473   24.7319 H   0  0  0  0  0  0  0  0  0  0  0  0
    5.8620   -2.2909   23.6941 H   0  0  0  0  0  0  0  0  0  0  0  0
    5.6996    0.4208   22.0093 H   0  0  0  0  0  0  0  0  0  0  0  0
    4.6418   -0.4020   21.7695 H   0  0  0  0  0  0  0  0  0  0  0  0
    7.8802   -0.7570   20.8196 H   0  0  0  0  0  0  0  0  0  0  0  0
    7.0688   -3.2240   21.2310 H   0  0  0  0  0  0  0  0  0  0  0  0
    5.5439   -2.7233   21.7998 H   0  0  0  0  0  0  0  0  0  0  0  0
    5.5065   -3.2868   20.1950 H   0  0  0  0  0  0  0  0  0  0  0  0
    6.1783   -1.1450   17.2032 H   0  0  0  0  0  0  0  0  0  0  0  0
    5.7160   -2.1942   18.5445 H   0  0  0  0  0  0  0  0  0  0  0  0
    4.8304   -1.0851   18.0958 H   0  0  0  0  0  0  0  0  0  0  0  0
    9.9150    0.9731   15.4761 H   0  0  0  0  0  0  0  0  0  0  0  0
    8.1193    4.5466   15.8777 H   0  0  0  0  0  0  0  0  0  0  0  0
    6.8357    3.1498   17.5200 H   0  0  0  0  0  0  0  0  0  0  0  0
    4.8270    0.0012   29.0983 H   0  0  0  0  0  0  0  0  0  0  0  0
    4.1623   -1.5336   28.9346 H   0  0  0  0  0  0  0  0  0  0  0  0
    2.0123   -1.0600   29.3495 H   0  0  0  0  0  0  0  0  0  0  0  0
    2.7182    0.3466   30.1312 H   0  0  0  0  0  0  0  0  0  0  0  0
    1.0674    1.3425   28.7398 H   0  0  0  0  0  0  0  0  0  0  0  0
    1.2676    0.1112   27.5013 H   0  0  0  0  0  0  0  0  0  0  0  0
    3.0061    2.5287   28.0113 H   0  0  0  0  0  0  0  0  0  0  0  0
    2.3344    1.9252   26.5043 H   0  0  0  0  0  0  0  0  0  0  0  0
    4.3878    1.1893   26.1729 H   0  0  0  0  0  0  0  0  0  0  0  0
    4.9856    1.2862   27.7321 H   0  0  0  0  0  0  0  0  0  0  0  0
  1  2  1  0
  2  3  1  0
  3  4  1  0
  4  5  1  0
  5  6  1  0
  5  7  1  0
  7  8  1  0
  7  9  1  0
  9 10  2  0
  9 11  1  0
 11 12  1  0
 12 13  2  0
 13 14  1  0
 14 15  1  0
  2 16  1  0
 16 17  2  0
 16 18  1  0
 18 19  1  0
 19 20  1  0
 20 21  1  0
 21 22  1  0
 22 23  1  0
 15 11  2  0
 23 18  1  0
  1 24  1  0
  1 25  1  0
  1 26  1  0
  2 27  1  0
  3 28  1  0
  4 29  1  0
  4 30  1  0
  5 31  1  0
  6 32  1  0
  6 33  1  0
  6 34  1  0
  8 35  1  0
  8 36  1  0
  8 37  1  0
 12 38  1  0
 14 39  1  0
 15 40  1  0
 19 41  1  0
 19 42  1  0
 20 43  1  0
 20 44  1  0
 21 45  1  0
 21 46  1  0
 22 47  1  0
 22 48  1  0
 23 49  1  0
 23 50  1  0
M  END
>  <Energy>  (1087) 
586.79507158333581

>  <compound_id>  (1087) 
8615

>  <target_id>  (1087) 
1

>  <reference_id>  (1087) 
81

>  <inspiration_ids>  (1087) 
[81, 44]

>  <energy_score>  (1087) 
473.40247794289354

>  <distance_score>  (1087) 
6.2155017829739245

>  <path>  (1087) 
/opt/xchem-fragalysis-2/maxwin/BulkDock/SCRATCH/511016/C8615-P81/C8615-P81.minimised.mol

>  <scratch_subdir>  (1087) 
/opt/xchem-fragalysis-2/maxwin/BulkDock/SCRATCH/511016/C8615-P81

>  <fragmenstein_runtime>  (1087) 
14.038212060928345

>  <fragmenstein_outcome>  (1087) 
too moved

>  <fragmenstein_mode>  (1087) 
expansion

>  <fragmenstein_error>  (1087) 


$$$$
C8615-P44
     RDKit          3D

 50 51  0  0  0  0  0  0  0  0999 V2000
    4.8695   -1.6730   25.5717 C   0  0  0  0  0  0  0  0  0  0  0  0
    4.3185   -0.3560   25.0223 C   0  0  0  0  0  0  0  0  0  0  0  0
    5.0340    0.1221   23.8271 N   0  0  0  0  0  0  0  0  0  0  0  0
    5.0163   -0.7360   22.3175 C   0  0  0  0  0  0  0  0  0  0  0  0
    6.3164   -0.9827   20.7079 C   0  0  0  0  0  0  0  0  0  0  0  0
    5.7992   -2.5887   20.6909 C   0  0  0  0  0  0  0  0  0  0  0  0
    6.9242    0.5249   19.6054 N   0  0  0  0  0  0  0  0  0  0  0  0
    7.0748   -0.4224   18.7042 C   0  0  0  0  0  0  0  0  0  0  0  0
    8.1281    1.3227   19.6718 C   0  0  0  0  0  0  0  0  0  0  0  0
    9.0938    1.2027   20.3583 O   0  0  0  0  0  0  0  0  0  0  0  0
    8.2842    2.4214   18.6711 C   0  0  0  0  0  0  0  0  0  0  0  0
    8.8035    3.7232   18.8829 C   0  0  0  0  0  0  0  0  0  0  0  0
    8.9704    4.4355   17.7633 N   0  0  0  0  0  0  0  0  0  0  0  0
    8.7266    3.5403   16.8039 N   0  0  0  0  0  0  0  0  0  0  0  0
    8.3835    2.3161   17.2884 C   0  0  0  0  0  0  0  0  0  0  0  0
    4.4921    0.7266   26.1593 C   0  0  0  0  0  0  0  0  0  0  0  0
    5.5210    0.7649   26.7873 O   0  0  0  0  0  0  0  0  0  0  0  0
    3.2722    1.4734   26.3178 N   0  0  0  0  0  0  0  0  0  0  0  0
    2.8539    2.4504   27.3770 C   0  0  0  0  0  0  0  0  0  0  0  0
    1.3817    2.8703   27.3480 C   0  0  0  0  0  0  0  0  0  0  0  0
    1.2192    3.9095   26.2681 C   0  0  0  0  0  0  0  0  0  0  0  0
    1.9941    3.4262   25.0644 C   0  0  0  0  0  0  0  0  0  0  0  0
    3.3229    2.7505   25.4684 C   0  0  0  0  0  0  0  0  0  0  0  0
    4.7460   -2.4939   24.8671 H   0  0  0  0  0  0  0  0  0  0  0  0
    5.9342   -1.6020   25.8203 H   0  0  0  0  0  0  0  0  0  0  0  0
    4.3477   -1.9478   26.4958 H   0  0  0  0  0  0  0  0  0  0  0  0
    3.2571   -0.4149   24.8484 H   0  0  0  0  0  0  0  0  0  0  0  0
    5.9399    0.3130   24.2151 H   0  0  0  0  0  0  0  0  0  0  0  0
    4.4665   -0.0422   21.6927 H   0  0  0  0  0  0  0  0  0  0  0  0
    4.6527   -1.6583   22.7708 H   0  0  0  0  0  0  0  0  0  0  0  0
    7.2940   -1.2592   20.8324 H   0  0  0  0  0  0  0  0  0  0  0  0
    6.7024   -3.1113   21.0783 H   0  0  0  0  0  0  0  0  0  0  0  0
    5.2844   -2.8667   21.5737 H   0  0  0  0  0  0  0  0  0  0  0  0
    5.3492   -3.0587   19.8270 H   0  0  0  0  0  0  0  0  0  0  0  0
    7.5955    0.0875   17.8763 H   0  0  0  0  0  0  0  0  0  0  0  0
    7.9869   -0.8634   19.0724 H   0  0  0  0  0  0  0  0  0  0  0  0
    6.2964   -0.7444   18.0005 H   0  0  0  0  0  0  0  0  0  0  0  0
    9.1003    4.1766   19.8157 H   0  0  0  0  0  0  0  0  0  0  0  0
    8.8464    3.8229   15.8378 H   0  0  0  0  0  0  0  0  0  0  0  0
    8.2482    1.5003   16.5980 H   0  0  0  0  0  0  0  0  0  0  0  0
    3.5729    3.2492   27.6277 H   0  0  0  0  0  0  0  0  0  0  0  0
    2.9371    1.8235   28.2796 H   0  0  0  0  0  0  0  0  0  0  0  0
    0.7440    2.0012   27.1462 H   0  0  0  0  0  0  0  0  0  0  0  0
    1.0807    3.2854   28.3160 H   0  0  0  0  0  0  0  0  0  0  0  0
    1.6362    4.8642   26.6113 H   0  0  0  0  0  0  0  0  0  0  0  0
    0.1654    4.0815   26.0271 H   0  0  0  0  0  0  0  0  0  0  0  0
    2.1976    4.2661   24.3900 H   0  0  0  0  0  0  0  0  0  0  0  0
    1.3778    2.7244   24.5004 H   0  0  0  0  0  0  0  0  0  0  0  0
    3.7330    2.4076   24.5066 H   0  0  0  0  0  0  0  0  0  0  0  0
    4.1056    3.4628   25.7843 H   0  0  0  0  0  0  0  0  0  0  0  0
  1  2  1  0
  2  3  1  0
  3  4  1  0
  4  5  1  0
  5  6  1  0
  5  7  1  0
  7  8  1  0
  7  9  1  0
  9 10  2  0
  9 11  1  0
 11 12  1  0
 12 13  2  0
 13 14  1  0
 14 15  1  0
  2 16  1  0
 16 17  2  0
 16 18  1  0
 18 19  1  0
 19 20  1  0
 20 21  1  0
 21 22  1  0
 22 23  1  0
 15 11  2  0
 23 18  1  0
  1 24  1  0
  1 25  1  0
  1 26  1  0
  2 27  1  0
  3 28  1  0
  4 29  1  0
  4 30  1  0
  5 31  1  0
  6 32  1  0
  6 33  1  0
  6 34  1  0
  8 35  1  0
  8 36  1  0
  8 37  1  0
 12 38  1  0
 14 39  1  0
 15 40  1  0
 19 41  1  0
 19 42  1  0
 20 43  1  0
 20 44  1  0
 21 45  1  0
 21 46  1  0
 22 47  1  0
 22 48  1  0
 23 49  1  0
 23 50  1  0
M  END
>  <Energy>  (1088) 
476.47955510621046

>  <compound_id>  (1088) 
8615

>  <target_id>  (1088) 
1

>  <reference_id>  (1088) 
44

>  <inspiration_ids>  (1088) 
[81, 44]

>  <energy_score>  (1088) 
363.08696146577984

>  <distance_score>  (1088) 
5.843612470318004

>  <path>  (1088) 
/opt/xchem-fragalysis-2/maxwin/BulkDock/SCRATCH/511016/C8615-P44/C8615-P44.minimised.mol

>  <scratch_subdir>  (1088) 
/opt/xchem-fragalysis-2/maxwin/BulkDock/SCRATCH/511016/C8615-P44

>  <fragmenstein_runtime>  (1088) 
18.442835569381714

>  <fragmenstein_outcome>  (1088) 
too moved

>  <fragmenstein_mode>  (1088) 
expansion

>  <fragmenstein_error>  (1088) 


$$$$
C8616-P81
     RDKit          3D

 56 57  0  0  0  0  0  0  0  0999 V2000
   14.4810   -6.5460   22.5537 C   0  0  0  0  0  0  0  0  0  0  0  0
   14.1545   -5.1437   22.0728 C   0  0  0  0  0  0  0  0  0  0  0  0
   13.0646   -5.1533   21.1148 N   0  0  0  0  0  0  0  0  0  0  0  0
   11.8171   -4.6377   21.3068 C   0  0  0  0  0  0  0  0  0  0  0  0
   10.6900   -5.1308   20.3163 C   0  0  0  0  0  0  0  0  0  0  0  0
    8.9865   -3.8959   20.1647 C   0  0  0  0  0  0  0  0  0  0  0  0
    8.0556   -4.4879   20.5844 O   0  0  0  0  0  0  0  0  0  0  0  0
    8.4103   -1.9437   19.7558 N   0  0  0  0  0  0  0  0  0  0  0  0
    8.4046   -0.5437   20.7173 C   0  0  0  0  0  0  0  0  0  0  0  0
    7.0187   -1.1529   20.0403 C   0  0  0  0  0  0  0  0  0  0  0  0
    6.9758   -0.4419   18.8062 C   0  0  0  0  0  0  0  0  0  0  0  0
    5.8555   -0.8723   21.7397 C   0  0  0  0  0  0  0  0  0  0  0  0
    5.0646   -1.6211   23.1370 N   0  0  0  0  0  0  0  0  0  0  0  0
    4.8396   -1.6797   24.7090 C   0  0  0  0  0  0  0  0  0  0  0  0
    3.5247   -2.4144   24.9135 C   0  0  0  0  0  0  0  0  0  0  0  0
    4.8570   -0.7920   26.1133 C   0  0  0  0  0  0  0  0  0  0  0  0
    5.8955   -0.8620   26.7358 O   0  0  0  0  0  0  0  0  0  0  0  0
    3.6016   -0.1406   26.4511 N   0  0  0  0  0  0  0  0  0  0  0  0
    3.5968    1.2706   25.9379 C   0  0  0  0  0  0  0  0  0  0  0  0
    2.3571    2.2002   25.8340 C   0  0  0  0  0  0  0  0  0  0  0  0
    1.5506    2.2796   27.1062 C   0  0  0  0  0  0  0  0  0  0  0  0
    1.6970    0.9610   27.8151 C   0  0  0  0  0  0  0  0  0  0  0  0
    3.1646    0.5447   27.7107 C   0  0  0  0  0  0  0  0  0  0  0  0
   12.1237   -5.0896   19.3185 C   0  0  0  0  0  0  0  0  0  0  0  0
   13.3320   -5.2818   19.8372 N   0  0  0  0  0  0  0  0  0  0  0  0
   13.6121   -7.0084   23.0341 H   0  0  0  0  0  0  0  0  0  0  0  0
   15.2998   -6.5189   23.2790 H   0  0  0  0  0  0  0  0  0  0  0  0
   14.7830   -7.1894   21.7204 H   0  0  0  0  0  0  0  0  0  0  0  0
   15.0246   -4.6831   21.5919 H   0  0  0  0  0  0  0  0  0  0  0  0
   13.8629   -4.5121   22.9187 H   0  0  0  0  0  0  0  0  0  0  0  0
   11.7230   -3.9919   22.1694 H   0  0  0  0  0  0  0  0  0  0  0  0
    7.8406    0.4321   20.5597 H   0  0  0  0  0  0  0  0  0  0  0  0
    8.8920   -0.3669   21.6930 H   0  0  0  0  0  0  0  0  0  0  0  0
    9.0507   -0.5511   19.8803 H   0  0  0  0  0  0  0  0  0  0  0  0
    6.6911   -2.0183   20.6299 H   0  0  0  0  0  0  0  0  0  0  0  0
    7.8547   -0.3464   18.1486 H   0  0  0  0  0  0  0  0  0  0  0  0
    6.1948   -0.9027   18.1821 H   0  0  0  0  0  0  0  0  0  0  0  0
    6.9352    0.5632   19.1889 H   0  0  0  0  0  0  0  0  0  0  0  0
    5.4475   -1.8751   21.5827 H   0  0  0  0  0  0  0  0  0  0  0  0
    5.2322    0.0143   21.6749 H   0  0  0  0  0  0  0  0  0  0  0  0
    4.1415   -1.2498   22.9371 H   0  0  0  0  0  0  0  0  0  0  0  0
    5.6752   -2.3200   24.9070 H   0  0  0  0  0  0  0  0  0  0  0  0
    3.5836   -3.0956   25.7525 H   0  0  0  0  0  0  0  0  0  0  0  0
    2.7323   -1.7176   25.1562 H   0  0  0  0  0  0  0  0  0  0  0  0
    3.1677   -2.9141   24.0233 H   0  0  0  0  0  0  0  0  0  0  0  0
    3.8566    1.1183   24.8892 H   0  0  0  0  0  0  0  0  0  0  0  0
    4.4549    1.8166   26.3625 H   0  0  0  0  0  0  0  0  0  0  0  0
    2.6946    3.2065   25.5548 H   0  0  0  0  0  0  0  0  0  0  0  0
    1.7167    1.8974   25.0071 H   0  0  0  0  0  0  0  0  0  0  0  0
    0.5015    2.5210   26.9078 H   0  0  0  0  0  0  0  0  0  0  0  0
    1.9518    3.0804   27.7397 H   0  0  0  0  0  0  0  0  0  0  0  0
    1.4030    1.0704   28.8648 H   0  0  0  0  0  0  0  0  0  0  0  0
    1.0486    0.1977   27.3716 H   0  0  0  0  0  0  0  0  0  0  0  0
    3.2546   -0.2863   28.4293 H   0  0  0  0  0  0  0  0  0  0  0  0
    3.8861    1.2572   28.1499 H   0  0  0  0  0  0  0  0  0  0  0  0
   12.0927   -4.7431   18.2831 H   0  0  0  0  0  0  0  0  0  0  0  0
  1  2  1  0
  2  3  1  0
  3  4  1  0
  4  5  2  0
  5  6  1  0
  6  7  2  0
  6  8  1  0
  8  9  1  0
  8 10  1  0
 10 11  1  0
 10 12  1  0
 12 13  1  0
 13 14  1  0
 14 15  1  0
 14 16  1  0
 16 17  2  0
 16 18  1  0
 18 19  1  0
 19 20  1  0
 20 21  1  0
 21 22  1  0
 22 23  1  0
  5 24  1  0
 24 25  2  0
 25  3  1  0
 23 18  1  0
  1 26  1  0
  1 27  1  0
  1 28  1  0
  2 29  1  0
  2 30  1  0
  4 31  1  0
  9 32  1  0
  9 33  1  0
  9 34  1  0
 10 35  1  0
 11 36  1  0
 11 37  1  0
 11 38  1  0
 12 39  1  0
 12 40  1  0
 13 41  1  0
 14 42  1  0
 15 43  1  0
 15 44  1  0
 15 45  1  0
 19 46  1  0
 19 47  1  0
 20 48  1  0
 20 49  1  0
 21 50  1  0
 21 51  1  0
 22 52  1  0
 22 53  1  0
 23 54  1  0
 23 55  1  0
 24 56  1  0
M  END
>  <Energy>  (1089) 
1143.5820437163218

>  <compound_id>  (1089) 
8616

>  <target_id>  (1089) 
1

>  <reference_id>  (1089) 
81

>  <inspiration_ids>  (1089) 
[81, 44]

>  <energy_score>  (1089) 
1032.0424173008405

>  <distance_score>  (1089) 
5.745147390112839

>  <path>  (1089) 
/opt/xchem-fragalysis-2/maxwin/BulkDock/SCRATCH/511016/C8616-P81/C8616-P81.minimised.mol

>  <scratch_subdir>  (1089) 
/opt/xchem-fragalysis-2/maxwin/BulkDock/SCRATCH/511016/C8616-P81

>  <fragmenstein_runtime>  (1089) 
16.772107362747192

>  <fragmenstein_outcome>  (1089) 
too moved

>  <fragmenstein_mode>  (1089) 
expansion

>  <fragmenstein_error>  (1089) 


$$$$
C8616-P44
     RDKit          3D

 56 57  0  0  0  0  0  0  0  0999 V2000
   10.0989    7.9582   14.6169 C   0  0  0  0  0  0  0  0  0  0  0  0
    9.7963    6.6978   13.8265 C   0  0  0  0  0  0  0  0  0  0  0  0
    9.2651    5.6411   14.6641 N   0  0  0  0  0  0  0  0  0  0  0  0
    9.9570    4.6024   15.1959 C   0  0  0  0  0  0  0  0  0  0  0  0
    9.0361    3.8526   15.9029 C   0  0  0  0  0  0  0  0  0  0  0  0
    9.3253    2.5891   16.5476 C   0  0  0  0  0  0  0  0  0  0  0  0
   10.3593    2.0562   16.2519 O   0  0  0  0  0  0  0  0  0  0  0  0
    8.2558    2.1403   17.3770 N   0  0  0  0  0  0  0  0  0  0  0  0
    8.4769    2.5793   18.7700 C   0  0  0  0  0  0  0  0  0  0  0  0
    8.0182    0.7398   18.0876 C   0  0  0  0  0  0  0  0  0  0  0  0
    7.8838   -0.0148   16.6842 C   0  0  0  0  0  0  0  0  0  0  0  0
    6.9969    0.1809   19.5224 C   0  0  0  0  0  0  0  0  0  0  0  0
    6.2834   -1.0298   20.8046 N   0  0  0  0  0  0  0  0  0  0  0  0
    4.9791   -0.6508   22.3291 C   0  0  0  0  0  0  0  0  0  0  0  0
    4.5110   -1.7874   23.3263 C   0  0  0  0  0  0  0  0  0  0  0  0
    4.9888    0.3437   24.0720 C   0  0  0  0  0  0  0  0  0  0  0  0
    5.9339    0.1328   24.7827 O   0  0  0  0  0  0  0  0  0  0  0  0
    3.7604    1.2217   24.4786 N   0  0  0  0  0  0  0  0  0  0  0  0
    3.9811    2.6602   24.0818 C   0  0  0  0  0  0  0  0  0  0  0  0
    2.7622    3.5777   23.8661 C   0  0  0  0  0  0  0  0  0  0  0  0
    2.1752    3.9774   25.1935 C   0  0  0  0  0  0  0  0  0  0  0  0
    2.1278    2.7306   26.0314 C   0  0  0  0  0  0  0  0  0  0  0  0
    3.3943    1.8871   25.7983 C   0  0  0  0  0  0  0  0  0  0  0  0
    7.8169    4.5246   15.7141 C   0  0  0  0  0  0  0  0  0  0  0  0
    7.9544    5.6240   14.9656 N   0  0  0  0  0  0  0  0  0  0  0  0
   10.5142    8.7286   13.9601 H   0  0  0  0  0  0  0  0  0  0  0  0
   10.8232    7.7604   15.4138 H   0  0  0  0  0  0  0  0  0  0  0  0
    9.1926    8.3591   15.0822 H   0  0  0  0  0  0  0  0  0  0  0  0
   10.7060    6.3192   13.3473 H   0  0  0  0  0  0  0  0  0  0  0  0
    9.0615    6.8983   13.0387 H   0  0  0  0  0  0  0  0  0  0  0  0
   11.0141    4.4541   15.0267 H   0  0  0  0  0  0  0  0  0  0  0  0
    7.5194    2.8210   19.2283 H   0  0  0  0  0  0  0  0  0  0  0  0
    9.1702    2.0754   19.4324 H   0  0  0  0  0  0  0  0  0  0  0  0
    8.9367    3.5789   18.7022 H   0  0  0  0  0  0  0  0  0  0  0  0
    9.0239    0.4734   18.3866 H   0  0  0  0  0  0  0  0  0  0  0  0
    6.9336   -0.5295   16.5591 H   0  0  0  0  0  0  0  0  0  0  0  0
    7.9112    0.6482   15.8114 H   0  0  0  0  0  0  0  0  0  0  0  0
    8.7449   -0.6668   16.4911 H   0  0  0  0  0  0  0  0  0  0  0  0
    7.8380   -0.4883   19.6308 H   0  0  0  0  0  0  0  0  0  0  0  0
    7.2081    1.0752   20.0753 H   0  0  0  0  0  0  0  0  0  0  0  0
    5.9032   -1.7973   20.2352 H   0  0  0  0  0  0  0  0  0  0  0  0
    4.4489    0.0416   21.6700 H   0  0  0  0  0  0  0  0  0  0  0  0
    4.2230   -1.5012   24.3454 H   0  0  0  0  0  0  0  0  0  0  0  0
    3.5604   -2.2410   23.0508 H   0  0  0  0  0  0  0  0  0  0  0  0
    5.3554   -2.4213   23.6022 H   0  0  0  0  0  0  0  0  0  0  0  0
    4.3681    2.5752   23.0995 H   0  0  0  0  0  0  0  0  0  0  0  0
    4.8160    3.1560   24.6088 H   0  0  0  0  0  0  0  0  0  0  0  0
    3.0684    4.4764   23.3179 H   0  0  0  0  0  0  0  0  0  0  0  0
    2.0122    3.0761   23.2540 H   0  0  0  0  0  0  0  0  0  0  0  0
    1.1853    4.4307   25.0814 H   0  0  0  0  0  0  0  0  0  0  0  0
    2.8231    4.7209   25.6733 H   0  0  0  0  0  0  0  0  0  0  0  0
    2.0622    3.0023   27.0919 H   0  0  0  0  0  0  0  0  0  0  0  0
    1.2152    2.1760   25.8148 H   0  0  0  0  0  0  0  0  0  0  0  0
    3.2299    0.9950   26.4243 H   0  0  0  0  0  0  0  0  0  0  0  0
    4.2801    2.3131   26.3037 H   0  0  0  0  0  0  0  0  0  0  0  0
    6.8321    4.2423   16.0677 H   0  0  0  0  0  0  0  0  0  0  0  0
  1  2  1  0
  2  3  1  0
  3  4  1  0
  4  5  2  0
  5  6  1  0
  6  7  2  0
  6  8  1  0
  8  9  1  0
  8 10  1  0
 10 11  1  0
 10 12  1  0
 12 13  1  0
 13 14  1  0
 14 15  1  0
 14 16  1  0
 16 17  2  0
 16 18  1  0
 18 19  1  0
 19 20  1  0
 20 21  1  0
 21 22  1  0
 22 23  1  0
  5 24  1  0
 24 25  2  0
 25  3  1  0
 23 18  1  0
  1 26  1  0
  1 27  1  0
  1 28  1  0
  2 29  1  0
  2 30  1  0
  4 31  1  0
  9 32  1  0
  9 33  1  0
  9 34  1  0
 10 35  1  0
 11 36  1  0
 11 37  1  0
 11 38  1  0
 12 39  1  0
 12 40  1  0
 13 41  1  0
 14 42  1  0
 15 43  1  0
 15 44  1  0
 15 45  1  0
 19 46  1  0
 19 47  1  0
 20 48  1  0
 20 49  1  0
 21 50  1  0
 21 51  1  0
 22 52  1  0
 22 53  1  0
 23 54  1  0
 23 55  1  0
 24 56  1  0
M  END
>  <Energy>  (1090) 
583.58869667172189

>  <compound_id>  (1090) 
8616

>  <target_id>  (1090) 
1

>  <reference_id>  (1090) 
44

>  <inspiration_ids>  (1090) 
[81, 44]

>  <energy_score>  (1090) 
472.04907025624277

>  <distance_score>  (1090) 
6.713233250030127

>  <path>  (1090) 
/opt/xchem-fragalysis-2/maxwin/BulkDock/SCRATCH/511016/C8616-P44/C8616-P44.minimised.mol

>  <scratch_subdir>  (1090) 
/opt/xchem-fragalysis-2/maxwin/BulkDock/SCRATCH/511016/C8616-P44

>  <fragmenstein_runtime>  (1090) 
14.7083740234375

>  <fragmenstein_outcome>  (1090) 
too moved

>  <fragmenstein_mode>  (1090) 
expansion

>  <fragmenstein_error>  (1090) 


$$$$
C8617-P81
     RDKit          3D

 53 54  0  0  0  0  0  0  0  0999 V2000
    2.8845   -2.2926   26.3583 C   0  0  0  0  0  0  0  0  0  0  0  0
    3.6465   -2.1327   25.0189 C   0  0  0  0  0  0  0  0  0  0  0  0
    4.3390   -0.8038   24.9445 N   0  0  0  0  0  0  0  0  0  0  0  0
    5.0917   -1.5748   23.4060 C   0  0  0  0  0  0  0  0  0  0  0  0
    5.8296   -0.6231   21.7626 C   0  0  0  0  0  0  0  0  0  0  0  0
    6.6348   -0.1106   19.9928 N   0  0  0  0  0  0  0  0  0  0  0  0
    7.7064   -0.5501   19.3376 C   0  0  0  0  0  0  0  0  0  0  0  0
    8.5151   -1.2968   19.6541 O   0  0  0  0  0  0  0  0  0  0  0  0
    8.0821    0.2219   17.6032 C   0  0  0  0  0  0  0  0  0  0  0  0
    8.4777   -0.2670   16.2216 N   0  0  0  0  0  0  0  0  0  0  0  0
    8.3069   -1.4257   15.5437 C   0  0  0  0  0  0  0  0  0  0  0  0
    9.5621   -1.7165   15.0500 C   0  0  0  0  0  0  0  0  0  0  0  0
   10.2405   -0.4973   15.0454 C   0  0  0  0  0  0  0  0  0  0  0  0
    9.5232    0.4454   15.6531 N   0  0  0  0  0  0  0  0  0  0  0  0
    4.9386   -0.4783   26.2550 C   0  0  0  0  0  0  0  0  0  0  0  0
    6.0444   -0.7120   26.6969 O   0  0  0  0  0  0  0  0  0  0  0  0
    3.9837    0.3855   27.1350 C   0  0  0  0  0  0  0  0  0  0  0  0
    3.1779    1.5070   26.4623 C   0  0  0  0  0  0  0  0  0  0  0  0
    1.7558    1.6727   26.8472 N   0  0  0  0  0  0  0  0  0  0  0  0
    1.4699    1.7410   28.2736 C   0  0  0  0  0  0  0  0  0  0  0  0
   -0.0396    1.5326   28.4953 C   0  0  0  0  0  0  0  0  0  0  0  0
   -0.9102    2.1365   27.3892 C   0  0  0  0  0  0  0  0  0  0  0  0
   -0.1849    3.2841   26.7073 C   0  0  0  0  0  0  0  0  0  0  0  0
    1.1673    2.8280   26.1388 C   0  0  0  0  0  0  0  0  0  0  0  0
    3.5724   -2.3735   27.2067 H   0  0  0  0  0  0  0  0  0  0  0  0
    2.2987   -3.2051   26.3891 H   0  0  0  0  0  0  0  0  0  0  0  0
    2.1834   -1.4754   26.5316 H   0  0  0  0  0  0  0  0  0  0  0  0
    2.9200   -2.2916   24.2339 H   0  0  0  0  0  0  0  0  0  0  0  0
    4.3372   -2.9466   25.0751 H   0  0  0  0  0  0  0  0  0  0  0  0
    5.7940   -2.2135   23.8821 H   0  0  0  0  0  0  0  0  0  0  0  0
    4.2844   -2.1377   23.0548 H   0  0  0  0  0  0  0  0  0  0  0  0
    5.0147    0.1051   21.7692 H   0  0  0  0  0  0  0  0  0  0  0  0
    5.7171   -1.6757   21.4919 H   0  0  0  0  0  0  0  0  0  0  0  0
    6.1209    0.4488   19.3968 H   0  0  0  0  0  0  0  0  0  0  0  0
    7.9469    1.3231   17.5433 H   0  0  0  0  0  0  0  0  0  0  0  0
    9.1670    0.3614   17.6673 H   0  0  0  0  0  0  0  0  0  0  0  0
    7.4011   -2.0060   15.5610 H   0  0  0  0  0  0  0  0  0  0  0  0
    9.8876   -2.6457   14.6082 H   0  0  0  0  0  0  0  0  0  0  0  0
   11.2029   -0.2539   14.6161 H   0  0  0  0  0  0  0  0  0  0  0  0
    4.6286    0.8687   27.8841 H   0  0  0  0  0  0  0  0  0  0  0  0
    3.3541   -0.2762   27.7284 H   0  0  0  0  0  0  0  0  0  0  0  0
    3.2099    1.3861   25.3752 H   0  0  0  0  0  0  0  0  0  0  0  0
    3.7038    2.4476   26.6756 H   0  0  0  0  0  0  0  0  0  0  0  0
    1.7908    2.7047   28.6898 H   0  0  0  0  0  0  0  0  0  0  0  0
    1.9922    0.9675   28.8448 H   0  0  0  0  0  0  0  0  0  0  0  0
   -0.2626    0.4607   28.5678 H   0  0  0  0  0  0  0  0  0  0  0  0
   -0.3102    1.9730   29.4620 H   0  0  0  0  0  0  0  0  0  0  0  0
   -1.8704    2.4693   27.7948 H   0  0  0  0  0  0  0  0  0  0  0  0
   -1.1440    1.3623   26.6487 H   0  0  0  0  0  0  0  0  0  0  0  0
   -0.8037    3.7011   25.9049 H   0  0  0  0  0  0  0  0  0  0  0  0
   -0.0229    4.0879   27.4368 H   0  0  0  0  0  0  0  0  0  0  0  0
    1.0318    2.5553   25.0858 H   0  0  0  0  0  0  0  0  0  0  0  0
    1.8448    3.6917   26.1553 H   0  0  0  0  0  0  0  0  0  0  0  0
  1  2  1  0
  2  3  1  0
  3  4  1  0
  4  5  1  0
  5  6  1  0
  6  7  1  0
  7  8  2  0
  7  9  1  0
  9 10  1  0
 10 11  1  0
 11 12  2  0
 12 13  1  0
 13 14  2  0
  3 15  1  0
 15 16  2  0
 15 17  1  0
 17 18  1  0
 18 19  1  0
 19 20  1  0
 20 21  1  0
 21 22  1  0
 22 23  1  0
 23 24  1  0
 14 10  1  0
 24 19  1  0
  1 25  1  0
  1 26  1  0
  1 27  1  0
  2 28  1  0
  2 29  1  0
  4 30  1  0
  4 31  1  0
  5 32  1  0
  5 33  1  0
  6 34  1  0
  9 35  1  0
  9 36  1  0
 11 37  1  0
 12 38  1  0
 13 39  1  0
 17 40  1  0
 17 41  1  0
 18 42  1  0
 18 43  1  0
 20 44  1  0
 20 45  1  0
 21 46  1  0
 21 47  1  0
 22 48  1  0
 22 49  1  0
 23 50  1  0
 23 51  1  0
 24 52  1  0
 24 53  1  0
M  END
>  <Energy>  (1091) 
470.19987299083272

>  <compound_id>  (1091) 
8617

>  <target_id>  (1091) 
1

>  <reference_id>  (1091) 
81

>  <inspiration_ids>  (1091) 
[81, 44]

>  <energy_score>  (1091) 
398.00658771206906

>  <distance_score>  (1091) 
4.022405010026227

>  <path>  (1091) 
/opt/xchem-fragalysis-2/maxwin/BulkDock/SCRATCH/511016/C8617-P81/C8617-P81.minimised.mol

>  <scratch_subdir>  (1091) 
/opt/xchem-fragalysis-2/maxwin/BulkDock/SCRATCH/511016/C8617-P81

>  <fragmenstein_runtime>  (1091) 
11.84218955039978

>  <fragmenstein_outcome>  (1091) 
too moved

>  <fragmenstein_mode>  (1091) 
expansion

>  <fragmenstein_error>  (1091) 


$$$$
C8617-P44
     RDKit          3D

 53 54  0  0  0  0  0  0  0  0999 V2000
    1.6930    7.7498   20.4890 C   0  0  0  0  0  0  0  0  0  0  0  0
    3.1729    7.5867   20.1129 C   0  0  0  0  0  0  0  0  0  0  0  0
    3.7272    6.1934   20.4640 N   0  0  0  0  0  0  0  0  0  0  0  0
    4.8232    6.6217   19.4468 C   0  0  0  0  0  0  0  0  0  0  0  0
    6.0817    5.7225   19.5918 C   0  0  0  0  0  0  0  0  0  0  0  0
    6.6324    5.1261   18.3745 N   0  0  0  0  0  0  0  0  0  0  0  0
    7.9387    4.5210   18.1109 C   0  0  0  0  0  0  0  0  0  0  0  0
    8.9116    4.4350   18.8034 O   0  0  0  0  0  0  0  0  0  0  0  0
    7.9525    3.9579   16.6785 C   0  0  0  0  0  0  0  0  0  0  0  0
    9.0197    3.0045   16.3386 N   0  0  0  0  0  0  0  0  0  0  0  0
   10.1531    3.3069   15.6161 C   0  0  0  0  0  0  0  0  0  0  0  0
   10.6036    2.1281   15.0676 C   0  0  0  0  0  0  0  0  0  0  0  0
    9.6896    1.1611   15.5112 C   0  0  0  0  0  0  0  0  0  0  0  0
    8.7608    1.6733   16.3214 N   0  0  0  0  0  0  0  0  0  0  0  0
    3.7880    6.0249   21.9071 C   0  0  0  0  0  0  0  0  0  0  0  0
    4.6779    6.2618   22.6849 O   0  0  0  0  0  0  0  0  0  0  0  0
    2.4507    5.4357   22.4457 C   0  0  0  0  0  0  0  0  0  0  0  0
    2.5577    4.5125   23.6920 C   0  0  0  0  0  0  0  0  0  0  0  0
    1.3747    4.5488   24.5980 N   0  0  0  0  0  0  0  0  0  0  0  0
    1.6039    3.7058   25.7831 C   0  0  0  0  0  0  0  0  0  0  0  0
    0.4500    3.7920   26.7865 C   0  0  0  0  0  0  0  0  0  0  0  0
   -0.8882    3.4697   26.1378 C   0  0  0  0  0  0  0  0  0  0  0  0
   -1.0821    4.3215   24.8920 C   0  0  0  0  0  0  0  0  0  0  0  0
    0.1114    4.2057   23.9379 C   0  0  0  0  0  0  0  0  0  0  0  0
    1.5693    7.9448   21.5561 H   0  0  0  0  0  0  0  0  0  0  0  0
    1.1063    6.8709   20.2058 H   0  0  0  0  0  0  0  0  0  0  0  0
    1.2741    8.6205   19.9719 H   0  0  0  0  0  0  0  0  0  0  0  0
    3.7173    8.3647   20.6714 H   0  0  0  0  0  0  0  0  0  0  0  0
    3.1439    7.8118   19.0330 H   0  0  0  0  0  0  0  0  0  0  0  0
    5.2379    7.6323   19.5989 H   0  0  0  0  0  0  0  0  0  0  0  0
    4.4340    6.4754   18.4282 H   0  0  0  0  0  0  0  0  0  0  0  0
    5.8248    4.8911   20.2369 H   0  0  0  0  0  0  0  0  0  0  0  0
    6.8926    6.2700   20.0850 H   0  0  0  0  0  0  0  0  0  0  0  0
    6.0175    4.9415   17.5913 H   0  0  0  0  0  0  0  0  0  0  0  0
    7.0056    3.4579   16.4555 H   0  0  0  0  0  0  0  0  0  0  0  0
    8.0549    4.8036   15.9879 H   0  0  0  0  0  0  0  0  0  0  0  0
   10.5058    4.3243   15.5342 H   0  0  0  0  0  0  0  0  0  0  0  0
   11.4501    1.9901   14.4119 H   0  0  0  0  0  0  0  0  0  0  0  0
    9.6564    0.1058   15.2707 H   0  0  0  0  0  0  0  0  0  0  0  0
    1.9246    4.9072   21.6429 H   0  0  0  0  0  0  0  0  0  0  0  0
    1.8481    6.2988   22.7415 H   0  0  0  0  0  0  0  0  0  0  0  0
    3.4356    4.8117   24.2765 H   0  0  0  0  0  0  0  0  0  0  0  0
    2.7435    3.4857   23.3511 H   0  0  0  0  0  0  0  0  0  0  0  0
    2.5181    4.0305   26.2949 H   0  0  0  0  0  0  0  0  0  0  0  0
    1.7558    2.6620   25.4871 H   0  0  0  0  0  0  0  0  0  0  0  0
    0.6327    3.1033   27.6191 H   0  0  0  0  0  0  0  0  0  0  0  0
    0.4135    4.8032   27.2118 H   0  0  0  0  0  0  0  0  0  0  0  0
   -1.7040    3.6476   26.8472 H   0  0  0  0  0  0  0  0  0  0  0  0
   -0.9215    2.4078   25.8689 H   0  0  0  0  0  0  0  0  0  0  0  0
   -1.9981    4.0136   24.3748 H   0  0  0  0  0  0  0  0  0  0  0  0
   -1.2178    5.3710   25.1831 H   0  0  0  0  0  0  0  0  0  0  0  0
    0.1508    3.1910   23.5323 H   0  0  0  0  0  0  0  0  0  0  0  0
   -0.0778    4.8819   23.0970 H   0  0  0  0  0  0  0  0  0  0  0  0
  1  2  1  0
  2  3  1  0
  3  4  1  0
  4  5  1  0
  5  6  1  0
  6  7  1  0
  7  8  2  0
  7  9  1  0
  9 10  1  0
 10 11  1  0
 11 12  2  0
 12 13  1  0
 13 14  2  0
  3 15  1  0
 15 16  2  0
 15 17  1  0
 17 18  1  0
 18 19  1  0
 19 20  1  0
 20 21  1  0
 21 22  1  0
 22 23  1  0
 23 24  1  0
 14 10  1  0
 24 19  1  0
  1 25  1  0
  1 26  1  0
  1 27  1  0
  2 28  1  0
  2 29  1  0
  4 30  1  0
  4 31  1  0
  5 32  1  0
  5 33  1  0
  6 34  1  0
  9 35  1  0
  9 36  1  0
 11 37  1  0
 12 38  1  0
 13 39  1  0
 17 40  1  0
 17 41  1  0
 18 42  1  0
 18 43  1  0
 20 44  1  0
 20 45  1  0
 21 46  1  0
 21 47  1  0
 22 48  1  0
 22 49  1  0
 23 50  1  0
 23 51  1  0
 24 52  1  0
 24 53  1  0
M  END
>  <Energy>  (1092) 
106.25965756897071

>  <compound_id>  (1092) 
8617

>  <target_id>  (1092) 
1

>  <reference_id>  (1092) 
44

>  <inspiration_ids>  (1092) 
[81, 44]

>  <energy_score>  (1092) 
34.06637229020697

>  <distance_score>  (1092) 
5.803745346315171

>  <path>  (1092) 
/opt/xchem-fragalysis-2/maxwin/BulkDock/SCRATCH/511016/C8617-P44/C8617-P44.minimised.mol

>  <scratch_subdir>  (1092) 
/opt/xchem-fragalysis-2/maxwin/BulkDock/SCRATCH/511016/C8617-P44

>  <fragmenstein_runtime>  (1092) 
13.07162857055664

>  <fragmenstein_outcome>  (1092) 
too moved

>  <fragmenstein_mode>  (1092) 
expansion

>  <fragmenstein_error>  (1092) 


$$$$
C8618-P81
     RDKit          3D

 37 38  0  0  0  0  0  0  0  0999 V2000
    9.2215   -3.1859   20.2411 C   0  0  0  0  0  0  0  0  0  0  0  0
    8.1362   -1.3129   19.5236 C   0  0  0  0  0  0  0  0  0  0  0  0
    6.9051   -0.2213   20.5144 N   0  0  0  0  0  0  0  0  0  0  0  0
    5.3364    0.1663   21.7488 C   0  0  0  0  0  0  0  0  0  0  0  0
    4.0812    1.3290   22.9015 C   0  0  0  0  0  0  0  0  0  0  0  0
    4.1124    0.9757   24.0769 O   0  0  0  0  0  0  0  0  0  0  0  0
    2.9999    2.5077   22.4285 N   0  0  0  0  0  0  0  0  0  0  0  0
    1.8824    3.2282   23.1788 C   0  0  0  0  0  0  0  0  0  0  0  0
    0.8811    3.9505   22.3012 C   0  0  0  0  0  0  0  0  0  0  0  0
    1.4927    5.2907   21.9770 C   0  0  0  0  0  0  0  0  0  0  0  0
    2.9503    5.0729   21.6114 C   0  0  0  0  0  0  0  0  0  0  0  0
    3.6702    4.0576   22.5457 C   0  0  0  0  0  0  0  0  0  0  0  0
    8.2150   -0.3785   17.7547 C   0  0  0  0  0  0  0  0  0  0  0  0
    7.5125   -0.6037   16.4268 C   0  0  0  0  0  0  0  0  0  0  0  0
    8.4294   -0.5000   15.4115 C   0  0  0  0  0  0  0  0  0  0  0  0
    9.4465    0.1583   15.9662 N   0  0  0  0  0  0  0  0  0  0  0  0
    9.4145    0.1169   17.2923 N   0  0  0  0  0  0  0  0  0  0  0  0
    8.7736   -4.2411   20.0563 H   0  0  0  0  0  0  0  0  0  0  0  0
   10.1369   -2.7235   20.1479 H   0  0  0  0  0  0  0  0  0  0  0  0
   10.5497   -3.3078   20.9131 H   0  0  0  0  0  0  0  0  0  0  0  0
    8.7938   -0.6321   19.9279 H   0  0  0  0  0  0  0  0  0  0  0  0
    6.4374   -1.1453   20.4942 H   0  0  0  0  0  0  0  0  0  0  0  0
    5.3158   -0.8291   22.2170 H   0  0  0  0  0  0  0  0  0  0  0  0
    5.9569    1.0079   22.1070 H   0  0  0  0  0  0  0  0  0  0  0  0
    2.1591    3.7919   24.0861 H   0  0  0  0  0  0  0  0  0  0  0  0
    1.3499    2.4754   23.7516 H   0  0  0  0  0  0  0  0  0  0  0  0
    0.6769    3.3791   21.3894 H   0  0  0  0  0  0  0  0  0  0  0  0
   -0.0694    4.0927   22.8264 H   0  0  0  0  0  0  0  0  0  0  0  0
    0.9516    5.7896   21.1665 H   0  0  0  0  0  0  0  0  0  0  0  0
    1.4344    5.9451   22.8556 H   0  0  0  0  0  0  0  0  0  0  0  0
    3.0067    4.7117   20.5774 H   0  0  0  0  0  0  0  0  0  0  0  0
    3.4781    6.0333   21.6411 H   0  0  0  0  0  0  0  0  0  0  0  0
    3.7236    4.4053   23.5907 H   0  0  0  0  0  0  0  0  0  0  0  0
    4.7297    4.1887   22.3138 H   0  0  0  0  0  0  0  0  0  0  0  0
    6.5248   -1.0219   16.2853 H   0  0  0  0  0  0  0  0  0  0  0  0
    8.3646   -0.7161   14.3557 H   0  0  0  0  0  0  0  0  0  0  0  0
   10.2693    0.5425   15.5137 H   0  0  0  0  0  0  0  0  0  0  0  0
  1  2  1  0
  2  3  1  0
  3  4  1  0
  4  5  1  0
  5  6  2  0
  5  7  1  0
  7  8  1  0
  8  9  1  0
  9 10  1  0
 10 11  1  0
 11 12  1  0
  2 13  1  0
 13 14  1  0
 14 15  2  0
 15 16  1  0
 16 17  1  0
 12  7  1  0
 17 13  2  0
  1 18  1  0
  1 19  1  0
  1 20  1  0
  2 21  1  0
  3 22  1  0
  4 23  1  0
  4 24  1  0
  8 25  1  0
  8 26  1  0
  9 27  1  0
  9 28  1  0
 10 29  1  0
 10 30  1  0
 11 31  1  0
 11 32  1  0
 12 33  1  0
 12 34  1  0
 14 35  1  0
 15 36  1  0
 16 37  1  0
M  END
>  <Energy>  (1093) 
926.65226384918594

>  <compound_id>  (1093) 
8618

>  <target_id>  (1093) 
1

>  <reference_id>  (1093) 
81

>  <inspiration_ids>  (1093) 
[81, 44]

>  <energy_score>  (1093) 
835.8463797003702

>  <distance_score>  (1093) 
6.264452161156854

>  <path>  (1093) 
/opt/xchem-fragalysis-2/maxwin/BulkDock/SCRATCH/511016/C8618-P81/C8618-P81.minimised.mol

>  <scratch_subdir>  (1093) 
/opt/xchem-fragalysis-2/maxwin/BulkDock/SCRATCH/511016/C8618-P81

>  <fragmenstein_runtime>  (1093) 
8.549844980239868

>  <fragmenstein_outcome>  (1093) 
too moved

>  <fragmenstein_mode>  (1093) 
expansion

>  <fragmenstein_error>  (1093) 


$$$$
C8618-P44
     RDKit          3D

 37 38  0  0  0  0  0  0  0  0999 V2000
   12.2957   -5.0503   20.1173 C   0  0  0  0  0  0  0  0  0  0  0  0
   11.0461   -5.2231   21.1474 C   0  0  0  0  0  0  0  0  0  0  0  0
    9.3637   -4.6964   20.6536 N   0  0  0  0  0  0  0  0  0  0  0  0
    7.5639   -4.5595   21.3662 C   0  0  0  0  0  0  0  0  0  0  0  0
    6.7028   -5.7542   22.8083 C   0  0  0  0  0  0  0  0  0  0  0  0
    6.6000   -6.9084   22.4266 O   0  0  0  0  0  0  0  0  0  0  0  0
    6.1173   -5.1986   24.1875 N   0  0  0  0  0  0  0  0  0  0  0  0
    5.2538   -5.8542   25.2401 C   0  0  0  0  0  0  0  0  0  0  0  0
    4.5171   -4.8366   26.1235 C   0  0  0  0  0  0  0  0  0  0  0  0
    5.5042   -3.7994   26.6017 C   0  0  0  0  0  0  0  0  0  0  0  0
    6.8652   -4.4696   26.6822 C   0  0  0  0  0  0  0  0  0  0  0  0
    7.2162   -5.3280   25.4022 C   0  0  0  0  0  0  0  0  0  0  0  0
   11.7953   -4.6383   22.3613 C   0  0  0  0  0  0  0  0  0  0  0  0
   12.9745   -5.1776   22.9553 C   0  0  0  0  0  0  0  0  0  0  0  0
   13.4575   -4.1784   23.7643 C   0  0  0  0  0  0  0  0  0  0  0  0
   12.5632   -3.1598   23.6621 N   0  0  0  0  0  0  0  0  0  0  0  0
   11.5166   -3.4649   22.8998 N   0  0  0  0  0  0  0  0  0  0  0  0
   12.7871   -4.0723   20.2420 H   0  0  0  0  0  0  0  0  0  0  0  0
   12.0610   -5.0931   19.0640 H   0  0  0  0  0  0  0  0  0  0  0  0
   13.0651   -5.7980   20.3262 H   0  0  0  0  0  0  0  0  0  0  0  0
   10.9406   -6.3072   21.2633 H   0  0  0  0  0  0  0  0  0  0  0  0
    9.2801   -5.4501   19.9839 H   0  0  0  0  0  0  0  0  0  0  0  0
    7.3232   -3.4874   21.4761 H   0  0  0  0  0  0  0  0  0  0  0  0
    7.0927   -4.7016   20.3410 H   0  0  0  0  0  0  0  0  0  0  0  0
    4.4793   -6.3664   24.6594 H   0  0  0  0  0  0  0  0  0  0  0  0
    5.6267   -6.7401   25.7810 H   0  0  0  0  0  0  0  0  0  0  0  0
    3.7030   -4.3444   25.5847 H   0  0  0  0  0  0  0  0  0  0  0  0
    4.0644   -5.3634   26.9714 H   0  0  0  0  0  0  0  0  0  0  0  0
    5.5456   -2.9679   25.8879 H   0  0  0  0  0  0  0  0  0  0  0  0
    5.2059   -3.3794   27.5676 H   0  0  0  0  0  0  0  0  0  0  0  0
    7.6368   -3.7065   26.8411 H   0  0  0  0  0  0  0  0  0  0  0  0
    6.9079   -5.1311   27.5570 H   0  0  0  0  0  0  0  0  0  0  0  0
    7.4111   -6.3928   25.6261 H   0  0  0  0  0  0  0  0  0  0  0  0
    8.2503   -5.0356   25.2147 H   0  0  0  0  0  0  0  0  0  0  0  0
   13.4585   -6.1188   22.7361 H   0  0  0  0  0  0  0  0  0  0  0  0
   14.3490   -4.0932   24.3678 H   0  0  0  0  0  0  0  0  0  0  0  0
   12.5871   -2.2298   24.0702 H   0  0  0  0  0  0  0  0  0  0  0  0
  1  2  1  0
  2  3  1  0
  3  4  1  0
  4  5  1  0
  5  6  2  0
  5  7  1  0
  7  8  1  0
  8  9  1  0
  9 10  1  0
 10 11  1  0
 11 12  1  0
  2 13  1  0
 13 14  1  0
 14 15  2  0
 15 16  1  0
 16 17  1  0
 12  7  1  0
 17 13  2  0
  1 18  1  0
  1 19  1  0
  1 20  1  0
  2 21  1  0
  3 22  1  0
  4 23  1  0
  4 24  1  0
  8 25  1  0
  8 26  1  0
  9 27  1  0
  9 28  1  0
 10 29  1  0
 10 30  1  0
 11 31  1  0
 11 32  1  0
 12 33  1  0
 12 34  1  0
 14 35  1  0
 15 36  1  0
 16 37  1  0
M  END
>  <Energy>  (1094) 
387.9014883098755

>  <compound_id>  (1094) 
8618

>  <target_id>  (1094) 
1

>  <reference_id>  (1094) 
44

>  <inspiration_ids>  (1094) 
[81, 44]

>  <energy_score>  (1094) 
297.0956041610676

>  <distance_score>  (1094) 
10.07670237305949

>  <path>  (1094) 
/opt/xchem-fragalysis-2/maxwin/BulkDock/SCRATCH/511016/C8618-P44/C8618-P44.minimised.mol

>  <scratch_subdir>  (1094) 
/opt/xchem-fragalysis-2/maxwin/BulkDock/SCRATCH/511016/C8618-P44

>  <fragmenstein_runtime>  (1094) 
10.727742195129395

>  <fragmenstein_outcome>  (1094) 
too moved

>  <fragmenstein_mode>  (1094) 
expansion

>  <fragmenstein_error>  (1094) 


$$$$
C8619-P81
     RDKit          3D

 46 47  0  0  0  0  0  0  0  0999 V2000
    6.9534   -5.3117   19.4472 C   0  0  0  0  0  0  0  0  0  0  0  0
    8.3792   -4.5907   20.3713 C   0  0  0  0  0  0  0  0  0  0  0  0
    7.4931   -3.3049   21.4335 N   0  0  0  0  0  0  0  0  0  0  0  0
    5.6954   -2.6680   22.0912 C   0  0  0  0  0  0  0  0  0  0  0  0
    4.4694   -2.1690   23.6075 C   0  0  0  0  0  0  0  0  0  0  0  0
    3.4129   -2.7360   23.4770 O   0  0  0  0  0  0  0  0  0  0  0  0
    4.7366   -1.1273   24.7122 N   0  0  0  0  0  0  0  0  0  0  0  0
    3.8178   -0.4957   25.7542 C   0  0  0  0  0  0  0  0  0  0  0  0
    4.2112    0.5201   26.8246 C   0  0  0  0  0  0  0  0  0  0  0  0
    4.8910   -0.2316   27.9188 C   0  0  0  0  0  0  0  0  0  0  0  0
    5.8961   -1.0805   27.1942 C   0  0  0  0  0  0  0  0  0  0  0  0
    5.2798   -1.7754   25.9312 C   0  0  0  0  0  0  0  0  0  0  0  0
   10.3565   -5.3610   20.2841 C   0  0  0  0  0  0  0  0  0  0  0  0
   11.8576   -5.2343   19.2648 C   0  0  0  0  0  0  0  0  0  0  0  0
   13.0712   -5.2293   19.9011 C   0  0  0  0  0  0  0  0  0  0  0  0
   12.6367   -5.1924   21.1558 N   0  0  0  0  0  0  0  0  0  0  0  0
   13.4636   -5.1193   22.3608 C   0  0  0  0  0  0  0  0  0  0  0  0
   14.5062   -4.0021   22.3031 C   0  0  0  0  0  0  0  0  0  0  0  0
   14.1183   -6.4722   22.6380 C   0  0  0  0  0  0  0  0  0  0  0  0
   11.4107   -4.6659   21.1986 N   0  0  0  0  0  0  0  0  0  0  0  0
    6.8574   -5.3848   18.3744 H   0  0  0  0  0  0  0  0  0  0  0  0
    7.0053   -6.4184   19.4281 H   0  0  0  0  0  0  0  0  0  0  0  0
    6.0855   -4.7209   19.6721 H   0  0  0  0  0  0  0  0  0  0  0  0
    7.9992   -4.9881   21.3261 H   0  0  0  0  0  0  0  0  0  0  0  0
    6.8670   -2.9825   20.6482 H   0  0  0  0  0  0  0  0  0  0  0  0
    5.2619   -3.0449   21.1601 H   0  0  0  0  0  0  0  0  0  0  0  0
    5.6675   -1.5785   21.8140 H   0  0  0  0  0  0  0  0  0  0  0  0
    3.0516   -1.2123   26.1002 H   0  0  0  0  0  0  0  0  0  0  0  0
    3.2325    0.1709   25.1226 H   0  0  0  0  0  0  0  0  0  0  0  0
    4.8675    1.2907   26.4209 H   0  0  0  0  0  0  0  0  0  0  0  0
    3.3212    1.0251   27.2172 H   0  0  0  0  0  0  0  0  0  0  0  0
    5.3672    0.4356   28.6436 H   0  0  0  0  0  0  0  0  0  0  0  0
    4.1767   -0.8625   28.4606 H   0  0  0  0  0  0  0  0  0  0  0  0
    6.2815   -1.8525   27.8713 H   0  0  0  0  0  0  0  0  0  0  0  0
    6.7606   -0.4643   26.9229 H   0  0  0  0  0  0  0  0  0  0  0  0
    4.5548   -2.5294   26.2687 H   0  0  0  0  0  0  0  0  0  0  0  0
    6.1923   -2.1714   25.4985 H   0  0  0  0  0  0  0  0  0  0  0  0
   11.7924   -4.8382   18.2407 H   0  0  0  0  0  0  0  0  0  0  0  0
   14.0955   -5.1173   19.5812 H   0  0  0  0  0  0  0  0  0  0  0  0
   12.7796   -4.9008   23.1917 H   0  0  0  0  0  0  0  0  0  0  0  0
   14.0394   -3.0376   22.0806 H   0  0  0  0  0  0  0  0  0  0  0  0
   15.2623   -4.1912   21.5334 H   0  0  0  0  0  0  0  0  0  0  0  0
   15.0249   -3.9114   23.2634 H   0  0  0  0  0  0  0  0  0  0  0  0
   13.3642   -7.2644   22.7054 H   0  0  0  0  0  0  0  0  0  0  0  0
   14.6698   -6.4500   23.5837 H   0  0  0  0  0  0  0  0  0  0  0  0
   14.8196   -6.7500   21.8433 H   0  0  0  0  0  0  0  0  0  0  0  0
  1  2  1  0
  2  3  1  0
  3  4  1  0
  4  5  1  0
  5  6  2  0
  5  7  1  0
  7  8  1  0
  8  9  1  0
  9 10  1  0
 10 11  1  0
 11 12  1  0
  2 13  1  0
 13 14  1  0
 14 15  2  0
 15 16  1  0
 16 17  1  0
 17 18  1  0
 17 19  1  0
 16 20  1  0
 12  7  1  0
 20 13  2  0
  1 21  1  0
  1 22  1  0
  1 23  1  0
  2 24  1  0
  3 25  1  0
  4 26  1  0
  4 27  1  0
  8 28  1  0
  8 29  1  0
  9 30  1  0
  9 31  1  0
 10 32  1  0
 10 33  1  0
 11 34  1  0
 11 35  1  0
 12 36  1  0
 12 37  1  0
 14 38  1  0
 15 39  1  0
 17 40  1  0
 18 41  1  0
 18 42  1  0
 18 43  1  0
 19 44  1  0
 19 45  1  0
 19 46  1  0
M  END
>  <Energy>  (1095) 
769.5957541791372

>  <compound_id>  (1095) 
8619

>  <target_id>  (1095) 
1

>  <reference_id>  (1095) 
81

>  <inspiration_ids>  (1095) 
[81, 44]

>  <energy_score>  (1095) 
674.9985629422254

>  <distance_score>  (1095) 
7.4280723788767835

>  <path>  (1095) 
/opt/xchem-fragalysis-2/maxwin/BulkDock/SCRATCH/511016/C8619-P81/C8619-P81.minimised.mol

>  <scratch_subdir>  (1095) 
/opt/xchem-fragalysis-2/maxwin/BulkDock/SCRATCH/511016/C8619-P81

>  <fragmenstein_runtime>  (1095) 
13.812655448913574

>  <fragmenstein_outcome>  (1095) 
too moved

>  <fragmenstein_mode>  (1095) 
expansion

>  <fragmenstein_error>  (1095) 


$$$$
C8619-P44
     RDKit          3D

 46 47  0  0  0  0  0  0  0  0999 V2000
    8.9870    3.4790   20.0922 C   0  0  0  0  0  0  0  0  0  0  0  0
    7.4890    2.5131   20.0587 C   0  0  0  0  0  0  0  0  0  0  0  0
    6.0117    2.3613   21.3576 N   0  0  0  0  0  0  0  0  0  0  0  0
    5.1170    3.4042   22.7750 C   0  0  0  0  0  0  0  0  0  0  0  0
    5.5754    3.6827   24.2620 C   0  0  0  0  0  0  0  0  0  0  0  0
    6.6132    4.2319   24.5217 O   0  0  0  0  0  0  0  0  0  0  0  0
    4.5067    3.2344   25.1285 N   0  0  0  0  0  0  0  0  0  0  0  0
    4.4056    3.2110   26.6300 C   0  0  0  0  0  0  0  0  0  0  0  0
    3.1785    2.4730   27.1947 C   0  0  0  0  0  0  0  0  0  0  0  0
    1.9346    3.3020   26.9635 C   0  0  0  0  0  0  0  0  0  0  0  0
    2.0271    3.8664   25.5659 C   0  0  0  0  0  0  0  0  0  0  0  0
    3.4639    4.3432   25.2929 C   0  0  0  0  0  0  0  0  0  0  0  0
    7.5287    2.5724   18.4708 C   0  0  0  0  0  0  0  0  0  0  0  0
    7.2353    3.6665   17.5984 C   0  0  0  0  0  0  0  0  0  0  0  0
    7.9065    3.4046   16.4231 C   0  0  0  0  0  0  0  0  0  0  0  0
    8.6112    2.2577   16.6328 N   0  0  0  0  0  0  0  0  0  0  0  0
    9.6887    1.7014   15.8254 C   0  0  0  0  0  0  0  0  0  0  0  0
   10.3447    2.6815   14.8506 C   0  0  0  0  0  0  0  0  0  0  0  0
    9.3201    0.3874   15.1452 C   0  0  0  0  0  0  0  0  0  0  0  0
    8.3968    1.7183   17.8524 N   0  0  0  0  0  0  0  0  0  0  0  0
    9.5172    3.6226   21.0412 H   0  0  0  0  0  0  0  0  0  0  0  0
    8.7928    4.4737   19.6660 H   0  0  0  0  0  0  0  0  0  0  0  0
    9.7333    2.9916   19.4617 H   0  0  0  0  0  0  0  0  0  0  0  0
    7.8132    1.4761   20.0926 H   0  0  0  0  0  0  0  0  0  0  0  0
    5.9799    3.3574   20.9832 H   0  0  0  0  0  0  0  0  0  0  0  0
    4.8015    4.3523   22.2942 H   0  0  0  0  0  0  0  0  0  0  0  0
    4.1785    2.8249   22.9658 H   0  0  0  0  0  0  0  0  0  0  0  0
    4.6891    4.1366   27.1587 H   0  0  0  0  0  0  0  0  0  0  0  0
    5.2586    2.5643   26.8907 H   0  0  0  0  0  0  0  0  0  0  0  0
    3.0764    1.4999   26.6981 H   0  0  0  0  0  0  0  0  0  0  0  0
    3.3096    2.2816   28.2652 H   0  0  0  0  0  0  0  0  0  0  0  0
    1.0246    2.7091   27.0995 H   0  0  0  0  0  0  0  0  0  0  0  0
    1.9032    4.1238   27.6892 H   0  0  0  0  0  0  0  0  0  0  0  0
    1.7543    3.0983   24.8322 H   0  0  0  0  0  0  0  0  0  0  0  0
    1.3214    4.6958   25.4474 H   0  0  0  0  0  0  0  0  0  0  0  0
    3.3952    4.7930   24.2896 H   0  0  0  0  0  0  0  0  0  0  0  0
    3.7833    5.2204   25.8823 H   0  0  0  0  0  0  0  0  0  0  0  0
    6.6693    4.5579   17.8248 H   0  0  0  0  0  0  0  0  0  0  0  0
    7.9751    3.9733   15.5092 H   0  0  0  0  0  0  0  0  0  0  0  0
   10.4571    1.4572   16.5541 H   0  0  0  0  0  0  0  0  0  0  0  0
   10.6880    3.5815   15.3727 H   0  0  0  0  0  0  0  0  0  0  0  0
    9.6598    2.9966   14.0593 H   0  0  0  0  0  0  0  0  0  0  0  0
   11.2167    2.2221   14.3727 H   0  0  0  0  0  0  0  0  0  0  0  0
    8.7324   -0.2633   15.8004 H   0  0  0  0  0  0  0  0  0  0  0  0
   10.2278   -0.1572   14.8618 H   0  0  0  0  0  0  0  0  0  0  0  0
    8.7543    0.5542   14.2299 H   0  0  0  0  0  0  0  0  0  0  0  0
  1  2  1  0
  2  3  1  0
  3  4  1  0
  4  5  1  0
  5  6  2  0
  5  7  1  0
  7  8  1  0
  8  9  1  0
  9 10  1  0
 10 11  1  0
 11 12  1  0
  2 13  1  0
 13 14  1  0
 14 15  2  0
 15 16  1  0
 16 17  1  0
 17 18  1  0
 17 19  1  0
 16 20  1  0
 12  7  1  0
 20 13  2  0
  1 21  1  0
  1 22  1  0
  1 23  1  0
  2 24  1  0
  3 25  1  0
  4 26  1  0
  4 27  1  0
  8 28  1  0
  8 29  1  0
  9 30  1  0
  9 31  1  0
 10 32  1  0
 10 33  1  0
 11 34  1  0
 11 35  1  0
 12 36  1  0
 12 37  1  0
 14 38  1  0
 15 39  1  0
 17 40  1  0
 18 41  1  0
 18 42  1  0
 18 43  1  0
 19 44  1  0
 19 45  1  0
 19 46  1  0
M  END
>  <Energy>  (1096) 
401.30344255554149

>  <compound_id>  (1096) 
8619

>  <target_id>  (1096) 
1

>  <reference_id>  (1096) 
44

>  <inspiration_ids>  (1096) 
[81, 44]

>  <energy_score>  (1096) 
306.7062513186331

>  <distance_score>  (1096) 
6.9744109414219215

>  <path>  (1096) 
/opt/xchem-fragalysis-2/maxwin/BulkDock/SCRATCH/511016/C8619-P44/C8619-P44.minimised.mol

>  <scratch_subdir>  (1096) 
/opt/xchem-fragalysis-2/maxwin/BulkDock/SCRATCH/511016/C8619-P44

>  <fragmenstein_runtime>  (1096) 
10.325955629348755

>  <fragmenstein_outcome>  (1096) 
too moved

>  <fragmenstein_mode>  (1096) 
expansion

>  <fragmenstein_error>  (1096) 


$$$$
C8620-P81
     RDKit          3D

 35 37  0  0  0  0  0  0  0  0999 V2000
    7.0847   -0.3927   19.3566 C   0  0  0  0  0  0  0  0  0  0  0  0
    6.7758    0.0306   20.6936 N   0  0  0  0  0  0  0  0  0  0  0  0
    7.7407    1.0857   20.6902 N   0  0  0  0  0  0  0  0  0  0  0  0
    7.9131    1.8635   21.7323 C   0  0  0  0  0  0  0  0  0  0  0  0
    6.6810    2.2233   21.9453 C   0  0  0  0  0  0  0  0  0  0  0  0
    5.6738    0.8831   21.9933 C   0  0  0  0  0  0  0  0  0  0  0  0
    4.0066    1.3525   22.7017 C   0  0  0  0  0  0  0  0  0  0  0  0
    2.9381    2.1919   22.2339 C   0  0  0  0  0  0  0  0  0  0  0  0
    2.0437    2.9636   23.0883 C   0  0  0  0  0  0  0  0  0  0  0  0
    1.9593    2.7740   24.4632 C   0  0  0  0  0  0  0  0  0  0  0  0
    0.8495    3.2145   25.2040 N   0  0  0  0  0  0  0  0  0  0  0  0
    0.7857    2.6706   26.5723 C   0  0  0  0  0  0  0  0  0  0  0  0
   -0.6279    2.8707   27.1240 C   0  0  0  0  0  0  0  0  0  0  0  0
   -1.0363    4.3395   27.0741 C   0  0  0  0  0  0  0  0  0  0  0  0
   -0.8527    4.9072   25.6698 C   0  0  0  0  0  0  0  0  0  0  0  0
    0.5577    4.6499   25.1302 C   0  0  0  0  0  0  0  0  0  0  0  0
    2.8467    1.9241   24.9554 N   0  0  0  0  0  0  0  0  0  0  0  0
    3.8518    1.2674   24.1012 N   0  0  0  0  0  0  0  0  0  0  0  0
    7.9864   -0.9624   19.4451 H   0  0  0  0  0  0  0  0  0  0  0  0
    6.4310   -0.8527   18.6329 H   0  0  0  0  0  0  0  0  0  0  0  0
    7.4471    0.4372   18.7947 H   0  0  0  0  0  0  0  0  0  0  0  0
    8.8342    2.3369   22.0530 H   0  0  0  0  0  0  0  0  0  0  0  0
    6.4789    3.2741   22.0939 H   0  0  0  0  0  0  0  0  0  0  0  0
    2.7365    2.3345   21.1775 H   0  0  0  0  0  0  0  0  0  0  0  0
    1.3003    3.5756   22.5844 H   0  0  0  0  0  0  0  0  0  0  0  0
    0.9951    1.5958   26.5958 H   0  0  0  0  0  0  0  0  0  0  0  0
    1.5207    3.1695   27.2171 H   0  0  0  0  0  0  0  0  0  0  0  0
   -0.6774    2.5044   28.1550 H   0  0  0  0  0  0  0  0  0  0  0  0
   -1.3386    2.2773   26.5347 H   0  0  0  0  0  0  0  0  0  0  0  0
   -0.4270    4.9131   27.7832 H   0  0  0  0  0  0  0  0  0  0  0  0
   -2.0813    4.4474   27.3852 H   0  0  0  0  0  0  0  0  0  0  0  0
   -1.0570    5.9837   25.6754 H   0  0  0  0  0  0  0  0  0  0  0  0
   -1.5869    4.4438   24.9982 H   0  0  0  0  0  0  0  0  0  0  0  0
    0.5955    5.0266   24.1025 H   0  0  0  0  0  0  0  0  0  0  0  0
    1.2950    5.2160   25.7139 H   0  0  0  0  0  0  0  0  0  0  0  0
  1  2  1  0
  2  3  1  0
  3  4  2  0
  4  5  1  0
  5  6  2  0
  6  7  1  0
  7  8  2  0
  8  9  1  0
  9 10  2  0
 10 11  1  0
 11 12  1  0
 12 13  1  0
 13 14  1  0
 14 15  1  0
 15 16  1  0
 10 17  1  0
 17 18  2  0
  6  2  1  0
 18  7  1  0
 16 11  1  0
  1 19  1  0
  1 20  1  0
  1 21  1  0
  4 22  1  0
  5 23  1  0
  8 24  1  0
  9 25  1  0
 12 26  1  0
 12 27  1  0
 13 28  1  0
 13 29  1  0
 14 30  1  0
 14 31  1  0
 15 32  1  0
 15 33  1  0
 16 34  1  0
 16 35  1  0
M  END
>  <Energy>  (1097) 
340.4979609167039

>  <compound_id>  (1097) 
8620

>  <target_id>  (1097) 
1

>  <reference_id>  (1097) 
81

>  <inspiration_ids>  (1097) 
[81, 44]

>  <energy_score>  (1097) 
283.5404874778116

>  <distance_score>  (1097) 
6.8016401869754315

>  <path>  (1097) 
/opt/xchem-fragalysis-2/maxwin/BulkDock/SCRATCH/511016/C8620-P81/C8620-P81.minimised.mol

>  <scratch_subdir>  (1097) 
/opt/xchem-fragalysis-2/maxwin/BulkDock/SCRATCH/511016/C8620-P81

>  <fragmenstein_runtime>  (1097) 
7.557454347610474

>  <fragmenstein_outcome>  (1097) 
too moved

>  <fragmenstein_mode>  (1097) 
expansion

>  <fragmenstein_error>  (1097) 


$$$$
C8620-P44
     RDKit          3D

 35 37  0  0  0  0  0  0  0  0999 V2000
    9.0798    0.6636   17.6070 C   0  0  0  0  0  0  0  0  0  0  0  0
    8.2907    0.6388   18.9670 N   0  0  0  0  0  0  0  0  0  0  0  0
    7.6731    1.8497   18.9036 N   0  0  0  0  0  0  0  0  0  0  0  0
    6.8247    1.5234   17.9106 C   0  0  0  0  0  0  0  0  0  0  0  0
    6.5619    0.1187   18.0113 C   0  0  0  0  0  0  0  0  0  0  0  0
    7.1502   -0.3570   19.3075 C   0  0  0  0  0  0  0  0  0  0  0  0
    6.3019   -1.4372   20.6690 C   0  0  0  0  0  0  0  0  0  0  0  0
    5.0469   -0.9229   21.8621 C   0  0  0  0  0  0  0  0  0  0  0  0
    4.7341   -1.3990   23.3612 C   0  0  0  0  0  0  0  0  0  0  0  0
    5.3866   -2.4544   23.9213 C   0  0  0  0  0  0  0  0  0  0  0  0
    5.0964   -2.7216   25.2674 N   0  0  0  0  0  0  0  0  0  0  0  0
    5.2597   -4.0411   25.8389 C   0  0  0  0  0  0  0  0  0  0  0  0
    4.1485   -4.1988   26.8939 C   0  0  0  0  0  0  0  0  0  0  0  0
    4.1601   -3.0712   27.9356 C   0  0  0  0  0  0  0  0  0  0  0  0
    4.2298   -1.6826   27.3035 C   0  0  0  0  0  0  0  0  0  0  0  0
    5.3183   -1.6260   26.2309 C   0  0  0  0  0  0  0  0  0  0  0  0
    6.0673   -3.2039   22.8281 N   0  0  0  0  0  0  0  0  0  0  0  0
    6.5063   -2.8488   21.1770 N   0  0  0  0  0  0  0  0  0  0  0  0
    8.7408    1.4617   16.9287 H   0  0  0  0  0  0  0  0  0  0  0  0
    8.9710   -0.2554   17.0358 H   0  0  0  0  0  0  0  0  0  0  0  0
   10.0541    1.0277   17.8182 H   0  0  0  0  0  0  0  0  0  0  0  0
    6.4233    2.2801   17.2477 H   0  0  0  0  0  0  0  0  0  0  0  0
    5.7978   -0.3933   17.4377 H   0  0  0  0  0  0  0  0  0  0  0  0
    4.5415    0.0324   21.6070 H   0  0  0  0  0  0  0  0  0  0  0  0
    4.1664   -0.7892   24.0504 H   0  0  0  0  0  0  0  0  0  0  0  0
    5.1652   -4.8413   25.1004 H   0  0  0  0  0  0  0  0  0  0  0  0
    6.2443   -4.1460   26.3098 H   0  0  0  0  0  0  0  0  0  0  0  0
    4.2574   -5.1653   27.3988 H   0  0  0  0  0  0  0  0  0  0  0  0
    3.1757   -4.2105   26.3923 H   0  0  0  0  0  0  0  0  0  0  0  0
    5.0339   -3.2067   28.5855 H   0  0  0  0  0  0  0  0  0  0  0  0
    3.2746   -3.1468   28.5765 H   0  0  0  0  0  0  0  0  0  0  0  0
    4.4295   -0.9329   28.0773 H   0  0  0  0  0  0  0  0  0  0  0  0
    3.2594   -1.4327   26.8648 H   0  0  0  0  0  0  0  0  0  0  0  0
    5.3143   -0.6267   25.7830 H   0  0  0  0  0  0  0  0  0  0  0  0
    6.3078   -1.7445   26.6919 H   0  0  0  0  0  0  0  0  0  0  0  0
  1  2  1  0
  2  3  1  0
  3  4  2  0
  4  5  1  0
  5  6  2  0
  6  7  1  0
  7  8  2  0
  8  9  1  0
  9 10  2  0
 10 11  1  0
 11 12  1  0
 12 13  1  0
 13 14  1  0
 14 15  1  0
 15 16  1  0
 10 17  1  0
 17 18  2  0
  6  2  1  0
 18  7  1  0
 16 11  1  0
  1 19  1  0
  1 20  1  0
  1 21  1  0
  4 22  1  0
  5 23  1  0
  8 24  1  0
  9 25  1  0
 12 26  1  0
 12 27  1  0
 13 28  1  0
 13 29  1  0
 14 30  1  0
 14 31  1  0
 15 32  1  0
 15 33  1  0
 16 34  1  0
 16 35  1  0
M  END
>  <Energy>  (1098) 
355.83437609717288

>  <compound_id>  (1098) 
8620

>  <target_id>  (1098) 
1

>  <reference_id>  (1098) 
44

>  <inspiration_ids>  (1098) 
[81, 44]

>  <energy_score>  (1098) 
298.87690265828235

>  <distance_score>  (1098) 
8.1011484012148

>  <path>  (1098) 
/opt/xchem-fragalysis-2/maxwin/BulkDock/SCRATCH/511016/C8620-P44/C8620-P44.minimised.mol

>  <scratch_subdir>  (1098) 
/opt/xchem-fragalysis-2/maxwin/BulkDock/SCRATCH/511016/C8620-P44

>  <fragmenstein_runtime>  (1098) 
5.123226642608643

>  <fragmenstein_outcome>  (1098) 
too moved

>  <fragmenstein_mode>  (1098) 
expansion

>  <fragmenstein_error>  (1098) 


$$$$
C8623-P81
     RDKit          3D

 51 53  0  0  0  0  0  0  0  0999 V2000
    7.5653   -0.1765   27.3282 C   0  0  0  0  0  0  0  0  0  0  0  0
    8.0433   -1.1182   26.2255 C   0  0  0  0  0  0  0  0  0  0  0  0
    6.9365   -2.1301   25.7374 C   0  0  0  0  0  0  0  0  0  0  0  0
    5.7170   -2.2447   24.4931 N   0  0  0  0  0  0  0  0  0  0  0  0
    4.3852   -1.7021   24.9858 C   0  0  0  0  0  0  0  0  0  0  0  0
    3.9611   -1.5700   26.5128 C   0  0  0  0  0  0  0  0  0  0  0  0
    2.8296   -0.6270   26.7846 N   0  0  0  0  0  0  0  0  0  0  0  0
    2.0382   -1.0416   27.9482 C   0  0  0  0  0  0  0  0  0  0  0  0
    0.8386   -0.1136   28.1822 C   0  0  0  0  0  0  0  0  0  0  0  0
    1.2686    1.3417   28.3175 C   0  0  0  0  0  0  0  0  0  0  0  0
    2.1570    1.7527   27.1512 C   0  0  0  0  0  0  0  0  0  0  0  0
    3.3044    0.7577   26.9316 C   0  0  0  0  0  0  0  0  0  0  0  0
    5.9244   -2.6495   22.7010 C   0  0  0  0  0  0  0  0  0  0  0  0
    7.3808   -3.3056   21.3795 C   0  0  0  0  0  0  0  0  0  0  0  0
    8.6128   -3.3881   21.4024 C   0  0  0  0  0  0  0  0  0  0  0  0
   10.7087   -3.2275   22.0139 C   0  0  0  0  0  0  0  0  0  0  0  0
   11.1017   -3.7889   20.9638 C   0  0  0  0  0  0  0  0  0  0  0  0
   12.4852   -4.0565   20.4317 C   0  0  0  0  0  0  0  0  0  0  0  0
   13.0279   -4.3478   19.1854 C   0  0  0  0  0  0  0  0  0  0  0  0
   14.4174   -4.2356   19.3260 C   0  0  0  0  0  0  0  0  0  0  0  0
   14.7669   -3.9180   20.5698 N   0  0  0  0  0  0  0  0  0  0  0  0
   13.5869   -3.7767   21.2035 N   0  0  0  0  0  0  0  0  0  0  0  0
    9.1383   -3.5864   20.4501 O   0  0  0  0  0  0  0  0  0  0  0  0
    7.3707   -0.7358   28.2497 H   0  0  0  0  0  0  0  0  0  0  0  0
    8.3372    0.5669   27.5498 H   0  0  0  0  0  0  0  0  0  0  0  0
    6.6446    0.3468   27.0634 H   0  0  0  0  0  0  0  0  0  0  0  0
    8.8463   -1.7215   26.6745 H   0  0  0  0  0  0  0  0  0  0  0  0
    8.5495   -0.5794   25.4256 H   0  0  0  0  0  0  0  0  0  0  0  0
    7.5691   -3.0035   25.5605 H   0  0  0  0  0  0  0  0  0  0  0  0
    6.3941   -2.2495   26.6794 H   0  0  0  0  0  0  0  0  0  0  0  0
    3.5927   -2.2591   24.4800 H   0  0  0  0  0  0  0  0  0  0  0  0
    4.3570   -0.6702   24.6907 H   0  0  0  0  0  0  0  0  0  0  0  0
    3.6824   -2.5641   26.8529 H   0  0  0  0  0  0  0  0  0  0  0  0
    4.7971   -1.2510   27.1369 H   0  0  0  0  0  0  0  0  0  0  0  0
    1.6514   -2.0558   27.7917 H   0  0  0  0  0  0  0  0  0  0  0  0
    2.6643   -1.0670   28.8495 H   0  0  0  0  0  0  0  0  0  0  0  0
    0.3069   -0.4251   29.0885 H   0  0  0  0  0  0  0  0  0  0  0  0
    0.1280   -0.2062   27.3540 H   0  0  0  0  0  0  0  0  0  0  0  0
    1.8207    1.4702   29.2567 H   0  0  0  0  0  0  0  0  0  0  0  0
    0.3889    1.9925   28.3707 H   0  0  0  0  0  0  0  0  0  0  0  0
    2.5702    2.7506   27.3386 H   0  0  0  0  0  0  0  0  0  0  0  0
    1.5522    1.8327   26.2410 H   0  0  0  0  0  0  0  0  0  0  0  0
    3.8458    1.0655   26.0317 H   0  0  0  0  0  0  0  0  0  0  0  0
    4.0065    0.8343   27.7724 H   0  0  0  0  0  0  0  0  0  0  0  0
    5.2183   -2.9534   22.0144 H   0  0  0  0  0  0  0  0  0  0  0  0
    5.5757   -1.6059   22.4010 H   0  0  0  0  0  0  0  0  0  0  0  0
    8.1411   -4.5953   21.2351 H   0  0  0  0  0  0  0  0  0  0  0  0
   11.1704   -3.0185   23.0227 H   0  0  0  0  0  0  0  0  0  0  0  0
   12.4940   -4.5241   18.2653 H   0  0  0  0  0  0  0  0  0  0  0  0
   15.1889   -4.3568   18.5769 H   0  0  0  0  0  0  0  0  0  0  0  0
   13.5846   -3.4086   22.1486 H   0  0  0  0  0  0  0  0  0  0  0  0
  1  2  1  0
  2  3  1  0
  3  4  1  0
  4  5  1  0
  5  6  1  0
  6  7  1  0
  7  8  1  0
  8  9  1  0
  9 10  1  0
 10 11  1  0
 11 12  1  0
  4 13  1  0
 13 14  1  0
 14 15  2  0
 15 16  1  0
 16 17  2  0
 17 18  1  0
 18 19  2  0
 19 20  1  0
 20 21  2  0
 21 22  1  0
 17 23  1  0
 12  7  1  0
 23 14  1  0
 22 18  1  0
  1 24  1  0
  1 25  1  0
  1 26  1  0
  2 27  1  0
  2 28  1  0
  3 29  1  0
  3 30  1  0
  5 31  1  0
  5 32  1  0
  6 33  1  0
  6 34  1  0
  8 35  1  0
  8 36  1  0
  9 37  1  0
  9 38  1  0
 10 39  1  0
 10 40  1  0
 11 41  1  0
 11 42  1  0
 12 43  1  0
 12 44  1  0
 13 45  1  0
 13 46  1  0
 15 47  1  0
 16 48  1  0
 19 49  1  0
 20 50  1  0
 22 51  1  0
M  END
>  <Energy>  (1099) 
1159.574180334522

>  <compound_id>  (1099) 
8623

>  <target_id>  (1099) 
1

>  <reference_id>  (1099) 
81

>  <inspiration_ids>  (1099) 
[81, 44]

>  <energy_score>  (1099) 
1060.6507867077805

>  <distance_score>  (1099) 
5.466611149294967

>  <path>  (1099) 
/opt/xchem-fragalysis-2/maxwin/BulkDock/SCRATCH/511016/C8623-P81/C8623-P81.minimised.mol

>  <scratch_subdir>  (1099) 
/opt/xchem-fragalysis-2/maxwin/BulkDock/SCRATCH/511016/C8623-P81

>  <fragmenstein_runtime>  (1099) 
8.16921067237854

>  <fragmenstein_outcome>  (1099) 
too moved

>  <fragmenstein_mode>  (1099) 
expansion

>  <fragmenstein_error>  (1099) 


$$$$
C8623-P44
     RDKit          3D

 51 53  0  0  0  0  0  0  0  0999 V2000
    6.8380   -2.9201   27.0679 C   0  0  0  0  0  0  0  0  0  0  0  0
    6.4172   -4.1421   26.2756 C   0  0  0  0  0  0  0  0  0  0  0  0
    5.5953   -3.9502   24.9647 C   0  0  0  0  0  0  0  0  0  0  0  0
    5.8437   -2.8094   23.9225 N   0  0  0  0  0  0  0  0  0  0  0  0
    4.7798   -1.7114   24.1021 C   0  0  0  0  0  0  0  0  0  0  0  0
    4.6032   -1.1567   25.5951 C   0  0  0  0  0  0  0  0  0  0  0  0
    3.5888   -0.1038   25.8907 N   0  0  0  0  0  0  0  0  0  0  0  0
    3.1069   -0.1786   27.2766 C   0  0  0  0  0  0  0  0  0  0  0  0
    1.9231    0.7682   27.5262 C   0  0  0  0  0  0  0  0  0  0  0  0
    2.1240    2.1633   26.9373 C   0  0  0  0  0  0  0  0  0  0  0  0
    3.5610    2.3701   26.4863 C   0  0  0  0  0  0  0  0  0  0  0  0
    4.0575    1.2510   25.5516 C   0  0  0  0  0  0  0  0  0  0  0  0
    6.7103   -3.3866   22.3300 C   0  0  0  0  0  0  0  0  0  0  0  0
    8.4490   -3.0199   21.3406 C   0  0  0  0  0  0  0  0  0  0  0  0
   10.1559   -2.8384   22.5068 C   0  0  0  0  0  0  0  0  0  0  0  0
   11.3581   -3.7966   22.8263 C   0  0  0  0  0  0  0  0  0  0  0  0
   11.5320   -4.0058   21.5425 C   0  0  0  0  0  0  0  0  0  0  0  0
   12.8058   -3.9761   20.8385 C   0  0  0  0  0  0  0  0  0  0  0  0
   13.2112   -4.4214   19.5986 C   0  0  0  0  0  0  0  0  0  0  0  0
   14.4829   -3.8692   19.3803 C   0  0  0  0  0  0  0  0  0  0  0  0
   14.8798   -3.1105   20.4031 N   0  0  0  0  0  0  0  0  0  0  0  0
   13.8544   -3.2016   21.2730 N   0  0  0  0  0  0  0  0  0  0  0  0
   10.2950   -3.2738   21.1246 O   0  0  0  0  0  0  0  0  0  0  0  0
    7.5389   -3.2182   27.8556 H   0  0  0  0  0  0  0  0  0  0  0  0
    7.3461   -2.1798   26.4450 H   0  0  0  0  0  0  0  0  0  0  0  0
    5.9870   -2.4566   27.5717 H   0  0  0  0  0  0  0  0  0  0  0  0
    7.3176   -4.7305   26.0558 H   0  0  0  0  0  0  0  0  0  0  0  0
    5.8274   -4.7883   26.9396 H   0  0  0  0  0  0  0  0  0  0  0  0
    5.7107   -4.9153   24.4568 H   0  0  0  0  0  0  0  0  0  0  0  0
    4.5388   -3.9217   25.2638 H   0  0  0  0  0  0  0  0  0  0  0  0
    3.8294   -2.0812   23.7398 H   0  0  0  0  0  0  0  0  0  0  0  0
    4.9608   -0.8451   23.4792 H   0  0  0  0  0  0  0  0  0  0  0  0
    4.3253   -2.0232   26.2002 H   0  0  0  0  0  0  0  0  0  0  0  0
    5.5793   -0.8131   25.9530 H   0  0  0  0  0  0  0  0  0  0  0  0
    2.7648   -1.1944   27.5097 H   0  0  0  0  0  0  0  0  0  0  0  0
    3.9222    0.0450   27.9773 H   0  0  0  0  0  0  0  0  0  0  0  0
    1.7669    0.8497   28.6089 H   0  0  0  0  0  0  0  0  0  0  0  0
    1.0006    0.3358   27.1220 H   0  0  0  0  0  0  0  0  0  0  0  0
    1.8486    2.9239   27.6770 H   0  0  0  0  0  0  0  0  0  0  0  0
    1.4488    2.3112   26.0874 H   0  0  0  0  0  0  0  0  0  0  0  0
    4.2091    2.4123   27.3715 H   0  0  0  0  0  0  0  0  0  0  0  0
    3.6594    3.3388   25.9828 H   0  0  0  0  0  0  0  0  0  0  0  0
    3.7309    1.4889   24.5361 H   0  0  0  0  0  0  0  0  0  0  0  0
    5.1532    1.3044   25.5443 H   0  0  0  0  0  0  0  0  0  0  0  0
    6.8475   -4.4536   22.6605 H   0  0  0  0  0  0  0  0  0  0  0  0
    5.9946   -3.0088   21.5184 H   0  0  0  0  0  0  0  0  0  0  0  0
   10.1659   -2.4196   23.5626 H   0  0  0  0  0  0  0  0  0  0  0  0
   12.0288   -3.7338   23.6694 H   0  0  0  0  0  0  0  0  0  0  0  0
   12.6390   -4.9924   18.8958 H   0  0  0  0  0  0  0  0  0  0  0  0
   15.1207   -3.9757   18.5123 H   0  0  0  0  0  0  0  0  0  0  0  0
   13.8899   -2.6426   22.1180 H   0  0  0  0  0  0  0  0  0  0  0  0
  1  2  1  0
  2  3  1  0
  3  4  1  0
  4  5  1  0
  5  6  1  0
  6  7  1  0
  7  8  1  0
  8  9  1  0
  9 10  1  0
 10 11  1  0
 11 12  1  0
  4 13  1  0
 13 14  1  0
 14 15  2  0
 15 16  1  0
 16 17  2  0
 17 18  1  0
 18 19  2  0
 19 20  1  0
 20 21  2  0
 21 22  1  0
 17 23  1  0
 12  7  1  0
 23 14  1  0
 22 18  1  0
  1 24  1  0
  1 25  1  0
  1 26  1  0
  2 27  1  0
  2 28  1  0
  3 29  1  0
  3 30  1  0
  5 31  1  0
  5 32  1  0
  6 33  1  0
  6 34  1  0
  8 35  1  0
  8 36  1  0
  9 37  1  0
  9 38  1  0
 10 39  1  0
 10 40  1  0
 11 41  1  0
 11 42  1  0
 12 43  1  0
 12 44  1  0
 13 45  1  0
 13 46  1  0
 15 47  1  0
 16 48  1  0
 19 49  1  0
 20 50  1  0
 22 51  1  0
M  END
>  <Energy>  (1100) 
719.55869566033448

>  <compound_id>  (1100) 
8623

>  <target_id>  (1100) 
1

>  <reference_id>  (1100) 
44

>  <inspiration_ids>  (1100) 
[81, 44]

>  <energy_score>  (1100) 
620.6353020335993

>  <distance_score>  (1100) 
5.857215680117395

>  <path>  (1100) 
/opt/xchem-fragalysis-2/maxwin/BulkDock/SCRATCH/511016/C8623-P44/C8623-P44.minimised.mol

>  <scratch_subdir>  (1100) 
/opt/xchem-fragalysis-2/maxwin/BulkDock/SCRATCH/511016/C8623-P44

>  <fragmenstein_runtime>  (1100) 
9.641915321350098

>  <fragmenstein_outcome>  (1100) 
too moved

>  <fragmenstein_mode>  (1100) 
expansion

>  <fragmenstein_error>  (1100) 


$$$$
C8624-P81
     RDKit          3D

 50 51  0  0  0  0  0  0  0  0999 V2000
   10.9870    1.5382   15.3872 C   0  0  0  0  0  0  0  0  0  0  0  0
    9.4761    1.4686   15.4424 N   0  0  0  0  0  0  0  0  0  0  0  0
    9.6588    2.7761   16.1419 C   0  0  0  0  0  0  0  0  0  0  0  0
    9.0565    0.1935   15.9407 C   0  0  0  0  0  0  0  0  0  0  0  0
    8.8322   -0.1681   17.0602 O   0  0  0  0  0  0  0  0  0  0  0  0
    8.8847   -0.7855   14.8053 C   0  0  0  0  0  0  0  0  0  0  0  0
    8.6333   -2.1675   15.1881 N   0  0  0  0  0  0  0  0  0  0  0  0
    7.5319   -3.0801   15.5380 C   0  0  0  0  0  0  0  0  0  0  0  0
    7.8620   -4.6457   16.3967 C   0  0  0  0  0  0  0  0  0  0  0  0
    7.0113   -4.7768   18.3804 N   0  0  0  0  0  0  0  0  0  0  0  0
    5.7121   -3.5105   19.4074 C   0  0  0  0  0  0  0  0  0  0  0  0
    5.2619   -2.5781   18.7121 O   0  0  0  0  0  0  0  0  0  0  0  0
    5.2410   -3.2651   20.9958 C   0  0  0  0  0  0  0  0  0  0  0  0
    5.1089   -2.0758   22.6508 C   0  0  0  0  0  0  0  0  0  0  0  0
    4.0183   -2.0957   24.2001 C   0  0  0  0  0  0  0  0  0  0  0  0
    4.0555   -1.2837   25.5269 N   0  0  0  0  0  0  0  0  0  0  0  0
    3.2145   -1.8917   26.5688 C   0  0  0  0  0  0  0  0  0  0  0  0
    3.5436   -1.3910   27.9778 C   0  0  0  0  0  0  0  0  0  0  0  0
    3.4506    0.1214   28.1246 C   0  0  0  0  0  0  0  0  0  0  0  0
    3.1510    0.7908   26.7992 C   0  0  0  0  0  0  0  0  0  0  0  0
    3.9864    0.1776   25.6487 C   0  0  0  0  0  0  0  0  0  0  0  0
    9.2678   -4.0349   15.2268 C   0  0  0  0  0  0  0  0  0  0  0  0
    9.7541   -2.8227   15.0996 N   0  0  0  0  0  0  0  0  0  0  0  0
   11.3790    2.3654   14.7760 H   0  0  0  0  0  0  0  0  0  0  0  0
   11.4878    1.4321   16.3588 H   0  0  0  0  0  0  0  0  0  0  0  0
   11.3203    0.6475   14.8386 H   0  0  0  0  0  0  0  0  0  0  0  0
    8.6318    3.0592   16.4156 H   0  0  0  0  0  0  0  0  0  0  0  0
    9.9967    3.5963   15.4929 H   0  0  0  0  0  0  0  0  0  0  0  0
   10.1619    2.7220   17.1174 H   0  0  0  0  0  0  0  0  0  0  0  0
    9.8912   -0.7771   14.3599 H   0  0  0  0  0  0  0  0  0  0  0  0
    8.2797   -0.5126   13.9631 H   0  0  0  0  0  0  0  0  0  0  0  0
    6.5613   -2.6740   15.2930 H   0  0  0  0  0  0  0  0  0  0  0  0
    7.2424   -5.5426   18.9857 H   0  0  0  0  0  0  0  0  0  0  0  0
    4.3876   -3.9097   20.8867 H   0  0  0  0  0  0  0  0  0  0  0  0
    6.2671   -3.0097   21.1301 H   0  0  0  0  0  0  0  0  0  0  0  0
    5.8973   -2.3971   23.2680 H   0  0  0  0  0  0  0  0  0  0  0  0
    5.1928   -1.0612   22.2819 H   0  0  0  0  0  0  0  0  0  0  0  0
    2.9993   -2.3012   23.8790 H   0  0  0  0  0  0  0  0  0  0  0  0
    4.2200   -3.0366   24.6920 H   0  0  0  0  0  0  0  0  0  0  0  0
    3.3568   -2.9635   26.5885 H   0  0  0  0  0  0  0  0  0  0  0  0
    2.1574   -1.7125   26.3785 H   0  0  0  0  0  0  0  0  0  0  0  0
    4.5572   -1.7154   28.2476 H   0  0  0  0  0  0  0  0  0  0  0  0
    2.8716   -1.8711   28.6995 H   0  0  0  0  0  0  0  0  0  0  0  0
    4.3991    0.5011   28.5241 H   0  0  0  0  0  0  0  0  0  0  0  0
    2.6815    0.3875   28.8590 H   0  0  0  0  0  0  0  0  0  0  0  0
    2.0798    0.7197   26.6104 H   0  0  0  0  0  0  0  0  0  0  0  0
    3.3713    1.8628   26.8751 H   0  0  0  0  0  0  0  0  0  0  0  0
    4.9944    0.4930   25.9117 H   0  0  0  0  0  0  0  0  0  0  0  0
    3.7002    0.7130   24.7516 H   0  0  0  0  0  0  0  0  0  0  0  0
   10.0268   -4.6685   14.7535 H   0  0  0  0  0  0  0  0  0  0  0  0
  1  2  1  0
  2  3  1  0
  2  4  1  0
  4  5  2  0
  4  6  1  0
  6  7  1  0
  7  8  1  0
  8  9  2  0
  9 10  1  0
 10 11  1  0
 11 12  2  0
 11 13  1  0
 13 14  1  0
 14 15  1  0
 15 16  1  0
 16 17  1  0
 17 18  1  0
 18 19  1  0
 19 20  1  0
 20 21  1  0
  9 22  1  0
 22 23  2  0
 23  7  1  0
 21 16  1  0
  1 24  1  0
  1 25  1  0
  1 26  1  0
  3 27  1  0
  3 28  1  0
  3 29  1  0
  6 30  1  0
  6 31  1  0
  8 32  1  0
 10 33  1  0
 13 34  1  0
 13 35  1  0
 14 36  1  0
 14 37  1  0
 15 38  1  0
 15 39  1  0
 17 40  1  0
 17 41  1  0
 18 42  1  0
 18 43  1  0
 19 44  1  0
 19 45  1  0
 20 46  1  0
 20 47  1  0
 21 48  1  0
 21 49  1  0
 22 50  1  0
M  END
>  <Energy>  (1101) 
996.12144384832266

>  <compound_id>  (1101) 
8624

>  <target_id>  (1101) 
1

>  <reference_id>  (1101) 
81

>  <inspiration_ids>  (1101) 
[81, 44]

>  <energy_score>  (1101) 
940.7930266275841

>  <distance_score>  (1101) 
6.15491175408142

>  <path>  (1101) 
/opt/xchem-fragalysis-2/maxwin/BulkDock/SCRATCH/511016/C8624-P81/C8624-P81.minimised.mol

>  <scratch_subdir>  (1101) 
/opt/xchem-fragalysis-2/maxwin/BulkDock/SCRATCH/511016/C8624-P81

>  <fragmenstein_runtime>  (1101) 
16.14670419692993

>  <fragmenstein_outcome>  (1101) 
too moved

>  <fragmenstein_mode>  (1101) 
expansion

>  <fragmenstein_error>  (1101) 


$$$$
C8624-P44
     RDKit          3D

 50 51  0  0  0  0  0  0  0  0999 V2000
    6.1751    4.5577   16.4509 C   0  0  0  0  0  0  0  0  0  0  0  0
    7.4702    5.2852   16.2134 N   0  0  0  0  0  0  0  0  0  0  0  0
    6.5599    6.2268   15.5001 C   0  0  0  0  0  0  0  0  0  0  0  0
    8.4615    4.3790   15.7094 C   0  0  0  0  0  0  0  0  0  0  0  0
    8.7478    4.0835   14.5767 O   0  0  0  0  0  0  0  0  0  0  0  0
    9.2757    3.8427   16.8853 C   0  0  0  0  0  0  0  0  0  0  0  0
    9.0852    2.4224   17.1352 N   0  0  0  0  0  0  0  0  0  0  0  0
    8.5650    1.8584   18.2771 C   0  0  0  0  0  0  0  0  0  0  0  0
    8.6778    0.4930   18.1574 C   0  0  0  0  0  0  0  0  0  0  0  0
    8.0960   -0.4990   19.0101 N   0  0  0  0  0  0  0  0  0  0  0  0
    6.9632   -0.4649   19.8913 C   0  0  0  0  0  0  0  0  0  0  0  0
    6.4073    0.4735   20.0791 O   0  0  0  0  0  0  0  0  0  0  0  0
    5.9961   -2.0007   20.8238 C   0  0  0  0  0  0  0  0  0  0  0  0
    5.0083   -2.0967   22.6713 C   0  0  0  0  0  0  0  0  0  0  0  0
    4.9725   -2.0038   24.4653 C   0  0  0  0  0  0  0  0  0  0  0  0
    5.0744   -0.8468   25.4017 N   0  0  0  0  0  0  0  0  0  0  0  0
    4.9951   -1.2671   26.8173 C   0  0  0  0  0  0  0  0  0  0  0  0
    3.7000   -0.8769   27.5463 C   0  0  0  0  0  0  0  0  0  0  0  0
    3.4316    0.6263   27.5020 C   0  0  0  0  0  0  0  0  0  0  0  0
    4.1063    1.2860   26.3056 C   0  0  0  0  0  0  0  0  0  0  0  0
    4.2198    0.3034   25.1383 C   0  0  0  0  0  0  0  0  0  0  0  0
    9.1984    0.3492   16.8245 C   0  0  0  0  0  0  0  0  0  0  0  0
    9.5579    1.5015   16.2668 N   0  0  0  0  0  0  0  0  0  0  0  0
    6.4466    3.7203   17.1017 H   0  0  0  0  0  0  0  0  0  0  0  0
    5.4278    5.1022   17.0476 H   0  0  0  0  0  0  0  0  0  0  0  0
    5.7662    4.0718   15.5538 H   0  0  0  0  0  0  0  0  0  0  0  0
    6.0873    5.8223   14.5918 H   0  0  0  0  0  0  0  0  0  0  0  0
    5.8895    6.8023   16.1543 H   0  0  0  0  0  0  0  0  0  0  0  0
    7.2479    6.9839   15.0962 H   0  0  0  0  0  0  0  0  0  0  0  0
    9.0488    4.3836   17.8106 H   0  0  0  0  0  0  0  0  0  0  0  0
   10.3336    4.0070   16.6576 H   0  0  0  0  0  0  0  0  0  0  0  0
    8.1308    2.4709   19.0548 H   0  0  0  0  0  0  0  0  0  0  0  0
    8.4754   -1.3876   19.0571 H   0  0  0  0  0  0  0  0  0  0  0  0
    5.3820   -1.1475   21.0853 H   0  0  0  0  0  0  0  0  0  0  0  0
    5.4438   -2.7359   20.2193 H   0  0  0  0  0  0  0  0  0  0  0  0
    4.8917   -1.0160   22.7541 H   0  0  0  0  0  0  0  0  0  0  0  0
    5.7627   -2.8886   22.9160 H   0  0  0  0  0  0  0  0  0  0  0  0
    5.7608   -2.6805   24.8050 H   0  0  0  0  0  0  0  0  0  0  0  0
    4.0842   -2.5659   24.7356 H   0  0  0  0  0  0  0  0  0  0  0  0
    5.8376   -0.7969   27.3412 H   0  0  0  0  0  0  0  0  0  0  0  0
    5.1543   -2.3470   26.9276 H   0  0  0  0  0  0  0  0  0  0  0  0
    3.7489   -1.2067   28.5907 H   0  0  0  0  0  0  0  0  0  0  0  0
    2.8562   -1.4126   27.1008 H   0  0  0  0  0  0  0  0  0  0  0  0
    3.7888    1.1025   28.4226 H   0  0  0  0  0  0  0  0  0  0  0  0
    2.3485    0.7943   27.4667 H   0  0  0  0  0  0  0  0  0  0  0  0
    3.5363    2.1719   26.0032 H   0  0  0  0  0  0  0  0  0  0  0  0
    5.1070    1.6374   26.5878 H   0  0  0  0  0  0  0  0  0  0  0  0
    4.6019    0.8523   24.2814 H   0  0  0  0  0  0  0  0  0  0  0  0
    3.2149   -0.0455   24.9340 H   0  0  0  0  0  0  0  0  0  0  0  0
    9.3347   -0.5487   16.2355 H   0  0  0  0  0  0  0  0  0  0  0  0
  1  2  1  0
  2  3  1  0
  2  4  1  0
  4  5  2  0
  4  6  1  0
  6  7  1  0
  7  8  1  0
  8  9  2  0
  9 10  1  0
 10 11  1  0
 11 12  2  0
 11 13  1  0
 13 14  1  0
 14 15  1  0
 15 16  1  0
 16 17  1  0
 17 18  1  0
 18 19  1  0
 19 20  1  0
 20 21  1  0
  9 22  1  0
 22 23  2  0
 23  7  1  0
 21 16  1  0
  1 24  1  0
  1 25  1  0
  1 26  1  0
  3 27  1  0
  3 28  1  0
  3 29  1  0
  6 30  1  0
  6 31  1  0
  8 32  1  0
 10 33  1  0
 13 34  1  0
 13 35  1  0
 14 36  1  0
 14 37  1  0
 15 38  1  0
 15 39  1  0
 17 40  1  0
 17 41  1  0
 18 42  1  0
 18 43  1  0
 19 44  1  0
 19 45  1  0
 20 46  1  0
 20 47  1  0
 21 48  1  0
 21 49  1  0
 22 50  1  0
M  END
>  <Energy>  (1102) 
410.33726047452575

>  <compound_id>  (1102) 
8624

>  <target_id>  (1102) 
1

>  <reference_id>  (1102) 
44

>  <inspiration_ids>  (1102) 
[81, 44]

>  <energy_score>  (1102) 
355.00884325379764

>  <distance_score>  (1102) 
6.602078264436695

>  <path>  (1102) 
/opt/xchem-fragalysis-2/maxwin/BulkDock/SCRATCH/511016/C8624-P44/C8624-P44.minimised.mol

>  <scratch_subdir>  (1102) 
/opt/xchem-fragalysis-2/maxwin/BulkDock/SCRATCH/511016/C8624-P44

>  <fragmenstein_runtime>  (1102) 
22.784861087799072

>  <fragmenstein_outcome>  (1102) 
too moved

>  <fragmenstein_mode>  (1102) 
expansion

>  <fragmenstein_error>  (1102) 


$$$$
C8625-P81
     RDKit          3D

 52 53  0  0  0  0  0  0  0  0999 V2000
   11.2543    7.7672   21.8495 C   0  0  0  0  0  0  0  0  0  0  0  0
    9.7388    7.5154   21.7238 C   0  0  0  0  0  0  0  0  0  0  0  0
    9.0437    8.1221   22.9540 C   0  0  0  0  0  0  0  0  0  0  0  0
    9.2312    8.2210   20.4549 C   0  0  0  0  0  0  0  0  0  0  0  0
    9.5174    5.9827   21.6405 C   0  0  0  0  0  0  0  0  0  0  0  0
    8.1376    5.5511   21.4860 N   0  0  0  0  0  0  0  0  0  0  0  0
    7.2438    5.3046   22.4930 C   0  0  0  0  0  0  0  0  0  0  0  0
    5.9877    5.1258   21.9533 C   0  0  0  0  0  0  0  0  0  0  0  0
    4.7532    4.8371   22.6266 N   0  0  0  0  0  0  0  0  0  0  0  0
    4.3675    4.9392   24.1834 C   0  0  0  0  0  0  0  0  0  0  0  0
    4.9927    5.3491   25.1013 O   0  0  0  0  0  0  0  0  0  0  0  0
    2.9051    4.2494   24.4717 C   0  0  0  0  0  0  0  0  0  0  0  0
    2.7340    3.5640   25.9513 C   0  0  0  0  0  0  0  0  0  0  0  0
    1.5345    2.6151   26.2863 C   0  0  0  0  0  0  0  0  0  0  0  0
    0.2197    3.2395   26.3602 N   0  0  0  0  0  0  0  0  0  0  0  0
   -0.8868    2.2814   26.2485 C   0  0  0  0  0  0  0  0  0  0  0  0
   -2.2150    2.7409   26.8446 C   0  0  0  0  0  0  0  0  0  0  0  0
   -2.3861    4.2431   26.6948 C   0  0  0  0  0  0  0  0  0  0  0  0
   -1.1551    5.0203   27.1635 C   0  0  0  0  0  0  0  0  0  0  0  0
    0.0376    4.1298   27.4975 C   0  0  0  0  0  0  0  0  0  0  0  0
    6.3252    5.0524   20.5424 C   0  0  0  0  0  0  0  0  0  0  0  0
    7.6232    5.2943   20.2640 N   0  0  0  0  0  0  0  0  0  0  0  0
   11.4763    8.8387   21.9110 H   0  0  0  0  0  0  0  0  0  0  0  0
   11.7955    7.3654   20.9854 H   0  0  0  0  0  0  0  0  0  0  0  0
   11.6607    7.2914   22.7493 H   0  0  0  0  0  0  0  0  0  0  0  0
    7.9534    8.0629   22.8747 H   0  0  0  0  0  0  0  0  0  0  0  0
    9.3456    7.6073   23.8728 H   0  0  0  0  0  0  0  0  0  0  0  0
    9.3002    9.1817   23.0681 H   0  0  0  0  0  0  0  0  0  0  0  0
    9.6854    7.7913   19.5551 H   0  0  0  0  0  0  0  0  0  0  0  0
    8.1436    8.1410   20.3551 H   0  0  0  0  0  0  0  0  0  0  0  0
    9.4770    9.2890   20.4731 H   0  0  0  0  0  0  0  0  0  0  0  0
   10.0751    5.5766   20.7891 H   0  0  0  0  0  0  0  0  0  0  0  0
    9.9025    5.4863   22.5403 H   0  0  0  0  0  0  0  0  0  0  0  0
    7.5515    5.3637   23.5287 H   0  0  0  0  0  0  0  0  0  0  0  0
    4.0111    4.3565   22.1207 H   0  0  0  0  0  0  0  0  0  0  0  0
    2.1458    5.0284   24.3509 H   0  0  0  0  0  0  0  0  0  0  0  0
    2.7419    3.4709   23.7193 H   0  0  0  0  0  0  0  0  0  0  0  0
    3.6372    2.9789   26.1461 H   0  0  0  0  0  0  0  0  0  0  0  0
    2.7799    4.3825   26.6789 H   0  0  0  0  0  0  0  0  0  0  0  0
    1.7528    2.0712   27.2136 H   0  0  0  0  0  0  0  0  0  0  0  0
    1.5353    1.8928   25.4725 H   0  0  0  0  0  0  0  0  0  0  0  0
   -0.6300    1.3126   26.6929 H   0  0  0  0  0  0  0  0  0  0  0  0
   -1.0564    2.1504   25.1775 H   0  0  0  0  0  0  0  0  0  0  0  0
   -2.2444    2.4666   27.9022 H   0  0  0  0  0  0  0  0  0  0  0  0
   -3.0482    2.2147   26.3646 H   0  0  0  0  0  0  0  0  0  0  0  0
   -2.5818    4.4813   25.6416 H   0  0  0  0  0  0  0  0  0  0  0  0
   -3.2623    4.5788   27.2537 H   0  0  0  0  0  0  0  0  0  0  0  0
   -0.8727    5.7292   26.3729 H   0  0  0  0  0  0  0  0  0  0  0  0
   -1.3968    5.6410   28.0266 H   0  0  0  0  0  0  0  0  0  0  0  0
   -0.1158    3.5759   28.4319 H   0  0  0  0  0  0  0  0  0  0  0  0
    0.9011    4.7837   27.6543 H   0  0  0  0  0  0  0  0  0  0  0  0
    5.6467    4.8559   19.7218 H   0  0  0  0  0  0  0  0  0  0  0  0
  1  2  1  0
  2  3  1  0
  2  4  1  0
  2  5  1  0
  5  6  1  0
  6  7  1  0
  7  8  2  0
  8  9  1  0
  9 10  1  0
 10 11  2  0
 10 12  1  0
 12 13  1  0
 13 14  1  0
 14 15  1  0
 15 16  1  0
 16 17  1  0
 17 18  1  0
 18 19  1  0
 19 20  1  0
  8 21  1  0
 21 22  2  0
 22  6  1  0
 20 15  1  0
  1 23  1  0
  1 24  1  0
  1 25  1  0
  3 26  1  0
  3 27  1  0
  3 28  1  0
  4 29  1  0
  4 30  1  0
  4 31  1  0
  5 32  1  0
  5 33  1  0
  7 34  1  0
  9 35  1  0
 12 36  1  0
 12 37  1  0
 13 38  1  0
 13 39  1  0
 14 40  1  0
 14 41  1  0
 16 42  1  0
 16 43  1  0
 17 44  1  0
 17 45  1  0
 18 46  1  0
 18 47  1  0
 19 48  1  0
 19 49  1  0
 20 50  1  0
 20 51  1  0
 21 52  1  0
M  END
>  <Energy>  (1103) 
50.857413293207863

>  <compound_id>  (1103) 
8625

>  <target_id>  (1103) 
1

>  <reference_id>  (1103) 
81

>  <inspiration_ids>  (1103) 
[81, 44]

>  <energy_score>  (1103) 
-3.9664430763798464

>  <distance_score>  (1103) 
7.061015397539973

>  <path>  (1103) 
/opt/xchem-fragalysis-2/maxwin/BulkDock/SCRATCH/511016/C8625-P81/C8625-P81.minimised.mol

>  <scratch_subdir>  (1103) 
/opt/xchem-fragalysis-2/maxwin/BulkDock/SCRATCH/511016/C8625-P81

>  <fragmenstein_runtime>  (1103) 
11.760108947753906

>  <fragmenstein_outcome>  (1103) 
too moved

>  <fragmenstein_mode>  (1103) 
expansion

>  <fragmenstein_error>  (1103) 


$$$$
C8625-P44
     RDKit          3D

 52 53  0  0  0  0  0  0  0  0999 V2000
   11.2634    5.6434   14.0586 C   0  0  0  0  0  0  0  0  0  0  0  0
   10.2250    4.8190   14.8508 C   0  0  0  0  0  0  0  0  0  0  0  0
    9.9223    5.5773   16.1536 C   0  0  0  0  0  0  0  0  0  0  0  0
    8.9443    4.7249   14.0135 C   0  0  0  0  0  0  0  0  0  0  0  0
   10.8449    3.4173   15.1100 C   0  0  0  0  0  0  0  0  0  0  0  0
   10.0183    2.3721   15.6866 N   0  0  0  0  0  0  0  0  0  0  0  0
    9.4176    2.3607   16.9089 C   0  0  0  0  0  0  0  0  0  0  0  0
    8.8487    1.1277   17.0729 C   0  0  0  0  0  0  0  0  0  0  0  0
    8.0518    0.7423   18.1231 N   0  0  0  0  0  0  0  0  0  0  0  0
    7.6589    1.4477   19.3242 C   0  0  0  0  0  0  0  0  0  0  0  0
    7.9936    2.5093   19.7410 O   0  0  0  0  0  0  0  0  0  0  0  0
    6.3685    0.4146   20.1001 C   0  0  0  0  0  0  0  0  0  0  0  0
    4.6570    0.8003   21.3473 C   0  0  0  0  0  0  0  0  0  0  0  0
    4.2969    1.7238   23.0756 C   0  0  0  0  0  0  0  0  0  0  0  0
    2.9639    2.2700   23.6663 N   0  0  0  0  0  0  0  0  0  0  0  0
    3.1683    2.5398   25.1123 C   0  0  0  0  0  0  0  0  0  0  0  0
    1.9370    3.1220   25.8190 C   0  0  0  0  0  0  0  0  0  0  0  0
    1.4274    4.3671   25.1138 C   0  0  0  0  0  0  0  0  0  0  0  0
    1.2306    4.0836   23.6337 C   0  0  0  0  0  0  0  0  0  0  0  0
    2.4979    3.4974   22.9896 C   0  0  0  0  0  0  0  0  0  0  0  0
    9.1636    0.4466   15.8773 C   0  0  0  0  0  0  0  0  0  0  0  0
    9.9076    1.1848   15.0456 N   0  0  0  0  0  0  0  0  0  0  0  0
   11.5052    5.1644   13.1029 H   0  0  0  0  0  0  0  0  0  0  0  0
   12.1957    5.7514   14.6245 H   0  0  0  0  0  0  0  0  0  0  0  0
   10.8897    6.6496   13.8372 H   0  0  0  0  0  0  0  0  0  0  0  0
   10.7761    5.5473   16.8393 H   0  0  0  0  0  0  0  0  0  0  0  0
    9.0494    5.1699   16.6710 H   0  0  0  0  0  0  0  0  0  0  0  0
    9.6980    6.6315   15.9519 H   0  0  0  0  0  0  0  0  0  0  0  0
    8.5602    5.7206   13.7637 H   0  0  0  0  0  0  0  0  0  0  0  0
    8.1522    4.1994   14.5563 H   0  0  0  0  0  0  0  0  0  0  0  0
    9.1291    4.1974   13.0721 H   0  0  0  0  0  0  0  0  0  0  0  0
   11.2187    3.0162   14.1575 H   0  0  0  0  0  0  0  0  0  0  0  0
   11.7216    3.5150   15.7582 H   0  0  0  0  0  0  0  0  0  0  0  0
    9.4327    3.2162   17.5687 H   0  0  0  0  0  0  0  0  0  0  0  0
    7.5108   -0.0907   18.0440 H   0  0  0  0  0  0  0  0  0  0  0  0
    6.8453   -0.5912   20.2134 H   0  0  0  0  0  0  0  0  0  0  0  0
    6.0556    0.4394   19.0389 H   0  0  0  0  0  0  0  0  0  0  0  0
    4.6032   -0.2549   21.7279 H   0  0  0  0  0  0  0  0  0  0  0  0
    3.6566    1.0353   21.0450 H   0  0  0  0  0  0  0  0  0  0  0  0
    4.8065    2.7044   23.1418 H   0  0  0  0  0  0  0  0  0  0  0  0
    4.6621    1.0034   23.8336 H   0  0  0  0  0  0  0  0  0  0  0  0
    3.4334    1.6049   25.6209 H   0  0  0  0  0  0  0  0  0  0  0  0
    4.0104    3.2313   25.2510 H   0  0  0  0  0  0  0  0  0  0  0  0
    2.1959    3.3682   26.8554 H   0  0  0  0  0  0  0  0  0  0  0  0
    1.1340    2.3802   25.8693 H   0  0  0  0  0  0  0  0  0  0  0  0
    0.4861    4.6995   25.5648 H   0  0  0  0  0  0  0  0  0  0  0  0
    2.1505    5.1824   25.2384 H   0  0  0  0  0  0  0  0  0  0  0  0
    0.3888    3.3931   23.5053 H   0  0  0  0  0  0  0  0  0  0  0  0
    0.9572    5.0105   23.1164 H   0  0  0  0  0  0  0  0  0  0  0  0
    3.2795    4.2679   22.9901 H   0  0  0  0  0  0  0  0  0  0  0  0
    2.2501    3.2744   21.9477 H   0  0  0  0  0  0  0  0  0  0  0  0
    8.8811   -0.5486   15.5625 H   0  0  0  0  0  0  0  0  0  0  0  0
  1  2  1  0
  2  3  1  0
  2  4  1  0
  2  5  1  0
  5  6  1  0
  6  7  1  0
  7  8  2  0
  8  9  1  0
  9 10  1  0
 10 11  2  0
 10 12  1  0
 12 13  1  0
 13 14  1  0
 14 15  1  0
 15 16  1  0
 16 17  1  0
 17 18  1  0
 18 19  1  0
 19 20  1  0
  8 21  1  0
 21 22  2  0
 22  6  1  0
 20 15  1  0
  1 23  1  0
  1 24  1  0
  1 25  1  0
  3 26  1  0
  3 27  1  0
  3 28  1  0
  4 29  1  0
  4 30  1  0
  4 31  1  0
  5 32  1  0
  5 33  1  0
  7 34  1  0
  9 35  1  0
 12 36  1  0
 12 37  1  0
 13 38  1  0
 13 39  1  0
 14 40  1  0
 14 41  1  0
 16 42  1  0
 16 43  1  0
 17 44  1  0
 17 45  1  0
 18 46  1  0
 18 47  1  0
 19 48  1  0
 19 49  1  0
 20 50  1  0
 20 51  1  0
 21 52  1  0
M  END
>  <Energy>  (1104) 
255.38112188729372

>  <compound_id>  (1104) 
8625

>  <target_id>  (1104) 
1

>  <reference_id>  (1104) 
44

>  <inspiration_ids>  (1104) 
[81, 44]

>  <energy_score>  (1104) 
185.61314669574682

>  <distance_score>  (1104) 
6.044565751655219

>  <path>  (1104) 
/opt/xchem-fragalysis-2/maxwin/BulkDock/SCRATCH/511016/C8625-P44/C8625-P44.minimised.mol

>  <scratch_subdir>  (1104) 
/opt/xchem-fragalysis-2/maxwin/BulkDock/SCRATCH/511016/C8625-P44

>  <fragmenstein_runtime>  (1104) 
12.023280620574951

>  <fragmenstein_outcome>  (1104) 
too moved

>  <fragmenstein_mode>  (1104) 
expansion

>  <fragmenstein_error>  (1104) 


$$$$
C8626-P81
     RDKit          3D

 43 44  0  0  0  0  0  0  0  0999 V2000
    4.8620    0.4140   21.7914 O   0  0  0  0  0  0  0  0  0  0  0  0
    5.6328   -0.5388   21.8170 C   0  0  0  0  0  0  0  0  0  0  0  0
    5.2110   -1.6658   23.3112 C   0  0  0  0  0  0  0  0  0  0  0  0
    4.6676   -1.2349   24.9398 C   0  0  0  0  0  0  0  0  0  0  0  0
    3.5294   -1.8695   25.7621 C   0  0  0  0  0  0  0  0  0  0  0  0
    2.7319   -0.9513   26.6319 N   0  0  0  0  0  0  0  0  0  0  0  0
    1.9194   -1.6537   27.6228 C   0  0  0  0  0  0  0  0  0  0  0  0
    0.7913   -0.7473   28.1499 C   0  0  0  0  0  0  0  0  0  0  0  0
    1.1766    0.7322   28.1988 C   0  0  0  0  0  0  0  0  0  0  0  0
    2.6814    0.8736   28.3718 C   0  0  0  0  0  0  0  0  0  0  0  0
    3.4497    0.1804   27.2302 C   0  0  0  0  0  0  0  0  0  0  0  0
    6.8979   -0.9447   20.5479 N   0  0  0  0  0  0  0  0  0  0  0  0
    7.2023   -0.2601   19.0806 C   0  0  0  0  0  0  0  0  0  0  0  0
    6.2864   -0.9260   17.7124 C   0  0  0  0  0  0  0  0  0  0  0  0
    6.9613   -0.6841   16.3717 N   0  0  0  0  0  0  0  0  0  0  0  0
    7.8436    0.3352   16.7274 N   0  0  0  0  0  0  0  0  0  0  0  0
    8.9089    0.8560   15.8896 C   0  0  0  0  0  0  0  0  0  0  0  0
    8.9627    2.3581   16.0346 C   0  0  0  0  0  0  0  0  0  0  0  0
    9.7002    2.6817   17.1274 F   0  0  0  0  0  0  0  0  0  0  0  0
    9.6393    2.8802   14.9724 F   0  0  0  0  0  0  0  0  0  0  0  0
    8.1435   -0.1908   17.9929 C   0  0  0  0  0  0  0  0  0  0  0  0
    5.8926   -2.4499   23.4209 H   0  0  0  0  0  0  0  0  0  0  0  0
    4.2717   -2.1229   23.1045 H   0  0  0  0  0  0  0  0  0  0  0  0
    5.5146   -1.4675   25.5939 H   0  0  0  0  0  0  0  0  0  0  0  0
    4.4503   -0.1678   24.9555 H   0  0  0  0  0  0  0  0  0  0  0  0
    2.9082   -2.4436   25.0886 H   0  0  0  0  0  0  0  0  0  0  0  0
    3.9955   -2.5763   26.4473 H   0  0  0  0  0  0  0  0  0  0  0  0
    2.5514   -1.9842   28.4582 H   0  0  0  0  0  0  0  0  0  0  0  0
    1.4699   -2.5632   27.2154 H   0  0  0  0  0  0  0  0  0  0  0  0
    0.5215   -1.0869   29.1575 H   0  0  0  0  0  0  0  0  0  0  0  0
   -0.1112   -0.8534   27.5407 H   0  0  0  0  0  0  0  0  0  0  0  0
    0.6432    1.2326   29.0144 H   0  0  0  0  0  0  0  0  0  0  0  0
    0.8682    1.2254   27.2688 H   0  0  0  0  0  0  0  0  0  0  0  0
    2.9753    0.4278   29.3308 H   0  0  0  0  0  0  0  0  0  0  0  0
    2.9597    1.9327   28.4151 H   0  0  0  0  0  0  0  0  0  0  0  0
    4.4294   -0.1303   27.6133 H   0  0  0  0  0  0  0  0  0  0  0  0
    3.6200    0.9411   26.4606 H   0  0  0  0  0  0  0  0  0  0  0  0
    7.3147   -1.7916   20.7627 H   0  0  0  0  0  0  0  0  0  0  0  0
    5.3657   -1.4921   17.8192 H   0  0  0  0  0  0  0  0  0  0  0  0
    8.7848    0.4794   14.8771 H   0  0  0  0  0  0  0  0  0  0  0  0
    9.8599    0.4344   16.2377 H   0  0  0  0  0  0  0  0  0  0  0  0
    7.9863    2.8461   16.1048 H   0  0  0  0  0  0  0  0  0  0  0  0
    8.5602   -0.9326   17.3819 H   0  0  0  0  0  0  0  0  0  0  0  0
  1  2  2  0
  2  3  1  0
  3  4  1  0
  4  5  1  0
  5  6  1  0
  6  7  1  0
  7  8  1  0
  8  9  1  0
  9 10  1  0
 10 11  1  0
  2 12  1  0
 12 13  1  0
 13 14  1  0
 14 15  2  0
 15 16  1  0
 16 17  1  0
 17 18  1  0
 18 19  1  0
 18 20  1  0
 16 21  1  0
 11  6  1  0
 21 13  2  0
  3 22  1  0
  3 23  1  0
  4 24  1  0
  4 25  1  0
  5 26  1  0
  5 27  1  0
  7 28  1  0
  7 29  1  0
  8 30  1  0
  8 31  1  0
  9 32  1  0
  9 33  1  0
 10 34  1  0
 10 35  1  0
 11 36  1  0
 11 37  1  0
 12 38  1  0
 14 39  1  0
 17 40  1  0
 17 41  1  0
 18 42  1  0
 21 43  1  0
M  END
>  <Energy>  (1105) 
347.36091427565009

>  <compound_id>  (1105) 
8626

>  <target_id>  (1105) 
1

>  <reference_id>  (1105) 
81

>  <inspiration_ids>  (1105) 
[81, 44]

>  <energy_score>  (1105) 
296.72420493704135

>  <distance_score>  (1105) 
5.554740201983105

>  <path>  (1105) 
/opt/xchem-fragalysis-2/maxwin/BulkDock/SCRATCH/511016/C8626-P81/C8626-P81.minimised.mol

>  <scratch_subdir>  (1105) 
/opt/xchem-fragalysis-2/maxwin/BulkDock/SCRATCH/511016/C8626-P81

>  <fragmenstein_runtime>  (1105) 
6.61741042137146

>  <fragmenstein_outcome>  (1105) 
too moved

>  <fragmenstein_mode>  (1105) 
expansion

>  <fragmenstein_error>  (1105) 


$$$$
C8626-P44
     RDKit          3D

 43 44  0  0  0  0  0  0  0  0999 V2000
    5.6176    5.6643   22.7697 O   0  0  0  0  0  0  0  0  0  0  0  0
    4.8233    5.3708   21.9303 C   0  0  0  0  0  0  0  0  0  0  0  0
    3.2531    4.9276   22.4990 C   0  0  0  0  0  0  0  0  0  0  0  0
    2.8908    3.6748   23.6575 C   0  0  0  0  0  0  0  0  0  0  0  0
    2.1652    3.9982   25.0670 C   0  0  0  0  0  0  0  0  0  0  0  0
    1.0056    3.1817   25.5673 N   0  0  0  0  0  0  0  0  0  0  0  0
   -0.2366    3.5000   24.8262 C   0  0  0  0  0  0  0  0  0  0  0  0
   -1.5578    3.3782   25.6094 C   0  0  0  0  0  0  0  0  0  0  0  0
   -1.4893    2.3368   26.7037 C   0  0  0  0  0  0  0  0  0  0  0  0
   -0.2999    2.5836   27.6246 C   0  0  0  0  0  0  0  0  0  0  0  0
    0.7950    3.4589   27.0063 C   0  0  0  0  0  0  0  0  0  0  0  0
    5.0050    5.2131   20.3185 N   0  0  0  0  0  0  0  0  0  0  0  0
    6.2347    5.2956   19.4689 C   0  0  0  0  0  0  0  0  0  0  0  0
    7.6145    5.6318   19.6734 C   0  0  0  0  0  0  0  0  0  0  0  0
    8.4907    5.0541   18.8253 N   0  0  0  0  0  0  0  0  0  0  0  0
    7.6977    4.4508   17.9384 N   0  0  0  0  0  0  0  0  0  0  0  0
    8.2531    3.5969   16.9146 C   0  0  0  0  0  0  0  0  0  0  0  0
    9.3752    4.2628   16.1581 C   0  0  0  0  0  0  0  0  0  0  0  0
    8.8651    5.2066   15.3182 F   0  0  0  0  0  0  0  0  0  0  0  0
    9.9739    3.3424   15.3505 F   0  0  0  0  0  0  0  0  0  0  0  0
    6.3723    4.7645   18.1600 C   0  0  0  0  0  0  0  0  0  0  0  0
    2.6638    4.6883   21.6059 H   0  0  0  0  0  0  0  0  0  0  0  0
    2.8395    5.8536   22.9169 H   0  0  0  0  0  0  0  0  0  0  0  0
    2.2456    2.9908   23.1054 H   0  0  0  0  0  0  0  0  0  0  0  0
    3.8336    3.1514   23.8528 H   0  0  0  0  0  0  0  0  0  0  0  0
    1.8894    5.0608   25.0597 H   0  0  0  0  0  0  0  0  0  0  0  0
    2.9751    3.9104   25.8040 H   0  0  0  0  0  0  0  0  0  0  0  0
   -0.2847    2.8545   23.9451 H   0  0  0  0  0  0  0  0  0  0  0  0
   -0.2018    4.5249   24.4326 H   0  0  0  0  0  0  0  0  0  0  0  0
   -2.3765    3.1483   24.9180 H   0  0  0  0  0  0  0  0  0  0  0  0
   -1.7929    4.3499   26.0629 H   0  0  0  0  0  0  0  0  0  0  0  0
   -1.3993    1.3408   26.2559 H   0  0  0  0  0  0  0  0  0  0  0  0
   -2.4188    2.3268   27.2844 H   0  0  0  0  0  0  0  0  0  0  0  0
    0.1214    1.6140   27.9183 H   0  0  0  0  0  0  0  0  0  0  0  0
   -0.6448    3.0615   28.5495 H   0  0  0  0  0  0  0  0  0  0  0  0
    0.5454    4.5186   27.1545 H   0  0  0  0  0  0  0  0  0  0  0  0
    1.7210    3.2738   27.5648 H   0  0  0  0  0  0  0  0  0  0  0  0
    4.1446    4.8713   19.9106 H   0  0  0  0  0  0  0  0  0  0  0  0
    8.0188    6.1883   20.5118 H   0  0  0  0  0  0  0  0  0  0  0  0
    7.4478    3.3239   16.2254 H   0  0  0  0  0  0  0  0  0  0  0  0
    8.6030    2.6852   17.4104 H   0  0  0  0  0  0  0  0  0  0  0  0
   10.1432    4.7235   16.7847 H   0  0  0  0  0  0  0  0  0  0  0  0
    5.6279    4.4169   17.4566 H   0  0  0  0  0  0  0  0  0  0  0  0
  1  2  2  0
  2  3  1  0
  3  4  1  0
  4  5  1  0
  5  6  1  0
  6  7  1  0
  7  8  1  0
  8  9  1  0
  9 10  1  0
 10 11  1  0
  2 12  1  0
 12 13  1  0
 13 14  1  0
 14 15  2  0
 15 16  1  0
 16 17  1  0
 17 18  1  0
 18 19  1  0
 18 20  1  0
 16 21  1  0
 11  6  1  0
 21 13  2  0
  3 22  1  0
  3 23  1  0
  4 24  1  0
  4 25  1  0
  5 26  1  0
  5 27  1  0
  7 28  1  0
  7 29  1  0
  8 30  1  0
  8 31  1  0
  9 32  1  0
  9 33  1  0
 10 34  1  0
 10 35  1  0
 11 36  1  0
 11 37  1  0
 12 38  1  0
 14 39  1  0
 17 40  1  0
 17 41  1  0
 18 42  1  0
 21 43  1  0
M  END
>  <Energy>  (1106) 
77.342029046592685

>  <compound_id>  (1106) 
8626

>  <target_id>  (1106) 
1

>  <reference_id>  (1106) 
44

>  <inspiration_ids>  (1106) 
[81, 44]

>  <energy_score>  (1106) 
45.344072837014494

>  <distance_score>  (1106) 
6.873983735078971

>  <path>  (1106) 
/opt/xchem-fragalysis-2/maxwin/BulkDock/SCRATCH/511016/C8626-P44/C8626-P44.minimised.mol

>  <scratch_subdir>  (1106) 
/opt/xchem-fragalysis-2/maxwin/BulkDock/SCRATCH/511016/C8626-P44

>  <fragmenstein_runtime>  (1106) 
8.970509052276611

>  <fragmenstein_outcome>  (1106) 
too moved

>  <fragmenstein_mode>  (1106) 
expansion

>  <fragmenstein_error>  (1106) 


$$$$
C8627-P81
     RDKit          3D

 40 41  0  0  0  0  0  0  0  0999 V2000
   10.2893   -0.0512   14.7372 C   0  0  0  0  0  0  0  0  0  0  0  0
    9.3274    0.2921   15.7557 N   0  0  0  0  0  0  0  0  0  0  0  0
    8.3792   -0.5229   16.3139 C   0  0  0  0  0  0  0  0  0  0  0  0
    7.9860    0.0550   17.5425 C   0  0  0  0  0  0  0  0  0  0  0  0
    7.0057   -0.6913   18.6699 N   0  0  0  0  0  0  0  0  0  0  0  0
    7.1973   -0.9466   20.1328 C   0  0  0  0  0  0  0  0  0  0  0  0
    8.0665   -0.5825   20.8117 O   0  0  0  0  0  0  0  0  0  0  0  0
    5.9377   -2.2252   21.1750 C   0  0  0  0  0  0  0  0  0  0  0  0
    5.0865   -1.6532   22.7701 C   0  0  0  0  0  0  0  0  0  0  0  0
    4.0712   -2.0649   24.2352 C   0  0  0  0  0  0  0  0  0  0  0  0
    3.4381   -1.2379   25.3903 N   0  0  0  0  0  0  0  0  0  0  0  0
    3.0676   -2.0684   26.5397 C   0  0  0  0  0  0  0  0  0  0  0  0
    2.0931   -1.3856   27.5200 C   0  0  0  0  0  0  0  0  0  0  0  0
    2.2264    0.1306   27.5973 C   0  0  0  0  0  0  0  0  0  0  0  0
    3.6164    0.5729   27.1930 C   0  0  0  0  0  0  0  0  0  0  0  0
    4.1261   -0.0528   25.8753 C   0  0  0  0  0  0  0  0  0  0  0  0
    8.4072    1.4275   17.2388 C   0  0  0  0  0  0  0  0  0  0  0  0
    9.2878    1.5315   16.2373 N   0  0  0  0  0  0  0  0  0  0  0  0
   11.2470    0.4105   14.9923 H   0  0  0  0  0  0  0  0  0  0  0  0
    9.9292    0.3296   13.7801 H   0  0  0  0  0  0  0  0  0  0  0  0
   10.4092   -1.1364   14.7143 H   0  0  0  0  0  0  0  0  0  0  0  0
    8.1838   -1.4755   15.8458 H   0  0  0  0  0  0  0  0  0  0  0  0
    6.1106   -1.0706   18.3863 H   0  0  0  0  0  0  0  0  0  0  0  0
    6.6319   -3.0345   21.2920 H   0  0  0  0  0  0  0  0  0  0  0  0
    5.3327   -2.9421   20.5714 H   0  0  0  0  0  0  0  0  0  0  0  0
    5.8399   -1.6879   23.4812 H   0  0  0  0  0  0  0  0  0  0  0  0
    4.8646   -0.6773   22.3670 H   0  0  0  0  0  0  0  0  0  0  0  0
    3.2600   -2.6894   23.8619 H   0  0  0  0  0  0  0  0  0  0  0  0
    4.7585   -2.6348   24.8347 H   0  0  0  0  0  0  0  0  0  0  0  0
    3.9708   -2.3652   27.0892 H   0  0  0  0  0  0  0  0  0  0  0  0
    2.5985   -2.9905   26.2084 H   0  0  0  0  0  0  0  0  0  0  0  0
    2.2713   -1.8101   28.5165 H   0  0  0  0  0  0  0  0  0  0  0  0
    1.0565   -1.6368   27.2783 H   0  0  0  0  0  0  0  0  0  0  0  0
    1.4833    0.6167   26.9599 H   0  0  0  0  0  0  0  0  0  0  0  0
    2.0029    0.4705   28.6155 H   0  0  0  0  0  0  0  0  0  0  0  0
    4.3084    0.2924   27.9990 H   0  0  0  0  0  0  0  0  0  0  0  0
    3.6574    1.6663   27.1233 H   0  0  0  0  0  0  0  0  0  0  0  0
    4.0683    0.7203   25.1126 H   0  0  0  0  0  0  0  0  0  0  0  0
    5.1595   -0.3059   26.0941 H   0  0  0  0  0  0  0  0  0  0  0  0
    8.0995    2.3319   17.7439 H   0  0  0  0  0  0  0  0  0  0  0  0
  1  2  1  0
  2  3  1  0
  3  4  2  0
  4  5  1  0
  5  6  1  0
  6  7  2  0
  6  8  1  0
  8  9  1  0
  9 10  1  0
 10 11  1  0
 11 12  1  0
 12 13  1  0
 13 14  1  0
 14 15  1  0
 15 16  1  0
  4 17  1  0
 17 18  2  0
 18  2  1  0
 16 11  1  0
  1 19  1  0
  1 20  1  0
  1 21  1  0
  3 22  1  0
  5 23  1  0
  8 24  1  0
  8 25  1  0
  9 26  1  0
  9 27  1  0
 10 28  1  0
 10 29  1  0
 12 30  1  0
 12 31  1  0
 13 32  1  0
 13 33  1  0
 14 34  1  0
 14 35  1  0
 15 36  1  0
 15 37  1  0
 16 38  1  0
 16 39  1  0
 17 40  1  0
M  END
>  <Energy>  (1107) 
273.10491374838767

>  <compound_id>  (1107) 
8627

>  <target_id>  (1107) 
1

>  <reference_id>  (1107) 
81

>  <inspiration_ids>  (1107) 
[81, 44]

>  <energy_score>  (1107) 
222.24304157444504

>  <distance_score>  (1107) 
6.104005523699426

>  <path>  (1107) 
/opt/xchem-fragalysis-2/maxwin/BulkDock/SCRATCH/511016/C8627-P81/C8627-P81.minimised.mol

>  <scratch_subdir>  (1107) 
/opt/xchem-fragalysis-2/maxwin/BulkDock/SCRATCH/511016/C8627-P81

>  <fragmenstein_runtime>  (1107) 
8.00072979927063

>  <fragmenstein_outcome>  (1107) 
too moved

>  <fragmenstein_mode>  (1107) 
expansion

>  <fragmenstein_error>  (1107) 


$$$$
C8627-P44
     RDKit          3D

 40 41  0  0  0  0  0  0  0  0999 V2000
    7.5917    5.7751   17.4341 C   0  0  0  0  0  0  0  0  0  0  0  0
    6.9067    5.9889   18.6850 N   0  0  0  0  0  0  0  0  0  0  0  0
    5.5886    5.7482   18.9565 C   0  0  0  0  0  0  0  0  0  0  0  0
    5.4300    5.9437   20.3128 C   0  0  0  0  0  0  0  0  0  0  0  0
    4.3181    5.5718   21.0375 N   0  0  0  0  0  0  0  0  0  0  0  0
    4.1095    5.4578   22.4759 C   0  0  0  0  0  0  0  0  0  0  0  0
    4.8289    5.7357   23.3960 O   0  0  0  0  0  0  0  0  0  0  0  0
    2.6854    4.8999   22.7502 C   0  0  0  0  0  0  0  0  0  0  0  0
    2.5222    3.9718   23.9857 C   0  0  0  0  0  0  0  0  0  0  0  0
    1.8133    4.6450   25.1813 C   0  0  0  0  0  0  0  0  0  0  0  0
    1.1623    3.6826   26.0944 N   0  0  0  0  0  0  0  0  0  0  0  0
   -0.1260    3.1913   25.5726 C   0  0  0  0  0  0  0  0  0  0  0  0
   -1.3552    3.8973   26.1356 C   0  0  0  0  0  0  0  0  0  0  0  0
   -1.4279    3.7274   27.6493 C   0  0  0  0  0  0  0  0  0  0  0  0
   -0.0439    3.5804   28.2816 C   0  0  0  0  0  0  0  0  0  0  0  0
    1.0260    4.2746   27.4404 C   0  0  0  0  0  0  0  0  0  0  0  0
    6.6707    6.4770   20.7199 C   0  0  0  0  0  0  0  0  0  0  0  0
    7.5825    6.4832   19.7375 N   0  0  0  0  0  0  0  0  0  0  0  0
    7.9694    6.7370   17.0790 H   0  0  0  0  0  0  0  0  0  0  0  0
    8.4150    5.0775   17.6070 H   0  0  0  0  0  0  0  0  0  0  0  0
    6.8946    5.3545   16.7051 H   0  0  0  0  0  0  0  0  0  0  0  0
    4.9193    5.3719   18.1975 H   0  0  0  0  0  0  0  0  0  0  0  0
    3.5277    5.1643   20.5551 H   0  0  0  0  0  0  0  0  0  0  0  0
    2.0127    5.7628   22.8157 H   0  0  0  0  0  0  0  0  0  0  0  0
    2.3571    4.3184   21.8807 H   0  0  0  0  0  0  0  0  0  0  0  0
    3.4916    3.5710   24.3049 H   0  0  0  0  0  0  0  0  0  0  0  0
    1.9322    3.1109   23.6589 H   0  0  0  0  0  0  0  0  0  0  0  0
    1.0757    5.3804   24.8360 H   0  0  0  0  0  0  0  0  0  0  0  0
    2.5853    5.2112   25.7195 H   0  0  0  0  0  0  0  0  0  0  0  0
   -0.1991    2.1358   25.8545 H   0  0  0  0  0  0  0  0  0  0  0  0
   -0.1599    3.2161   24.4777 H   0  0  0  0  0  0  0  0  0  0  0  0
   -2.2677    3.4997   25.6767 H   0  0  0  0  0  0  0  0  0  0  0  0
   -1.3165    4.9640   25.8817 H   0  0  0  0  0  0  0  0  0  0  0  0
   -1.9471    4.5919   28.0746 H   0  0  0  0  0  0  0  0  0  0  0  0
   -2.0311    2.8474   27.9017 H   0  0  0  0  0  0  0  0  0  0  0  0
    0.2032    2.5157   28.3827 H   0  0  0  0  0  0  0  0  0  0  0  0
   -0.0533    3.9922   29.2967 H   0  0  0  0  0  0  0  0  0  0  0  0
    0.7738    5.3421   27.3762 H   0  0  0  0  0  0  0  0  0  0  0  0
    1.9918    4.2020   27.9539 H   0  0  0  0  0  0  0  0  0  0  0  0
    6.9634    6.8004   21.7109 H   0  0  0  0  0  0  0  0  0  0  0  0
  1  2  1  0
  2  3  1  0
  3  4  2  0
  4  5  1  0
  5  6  1  0
  6  7  2  0
  6  8  1  0
  8  9  1  0
  9 10  1  0
 10 11  1  0
 11 12  1  0
 12 13  1  0
 13 14  1  0
 14 15  1  0
 15 16  1  0
  4 17  1  0
 17 18  2  0
 18  2  1  0
 16 11  1  0
  1 19  1  0
  1 20  1  0
  1 21  1  0
  3 22  1  0
  5 23  1  0
  8 24  1  0
  8 25  1  0
  9 26  1  0
  9 27  1  0
 10 28  1  0
 10 29  1  0
 12 30  1  0
 12 31  1  0
 13 32  1  0
 13 33  1  0
 14 34  1  0
 14 35  1  0
 15 36  1  0
 15 37  1  0
 16 38  1  0
 16 39  1  0
 17 40  1  0
M  END
>  <Energy>  (1108) 
14.071483082931657

>  <compound_id>  (1108) 
8627

>  <target_id>  (1108) 
1

>  <reference_id>  (1108) 
44

>  <inspiration_ids>  (1108) 
[81, 44]

>  <energy_score>  (1108) 
-36.79038909101121

>  <distance_score>  (1108) 
7.673975035018259

>  <path>  (1108) 
/opt/xchem-fragalysis-2/maxwin/BulkDock/SCRATCH/511016/C8627-P44/C8627-P44.minimised.mol

>  <scratch_subdir>  (1108) 
/opt/xchem-fragalysis-2/maxwin/BulkDock/SCRATCH/511016/C8627-P44

>  <fragmenstein_runtime>  (1108) 
8.848840475082397

>  <fragmenstein_outcome>  (1108) 
too moved

>  <fragmenstein_mode>  (1108) 
expansion

>  <fragmenstein_error>  (1108) 


$$$$
C8628-P81
     RDKit          3D

 43 45  0  0  0  0  0  0  0  0999 V2000
    7.6543    1.1142   20.7449 O   0  0  0  0  0  0  0  0  0  0  0  0
    7.1327    0.1138   20.2905 C   0  0  0  0  0  0  0  0  0  0  0  0
    5.8142   -0.6761   21.6458 C   0  0  0  0  0  0  0  0  0  0  0  0
    5.1423   -1.5415   23.2719 C   0  0  0  0  0  0  0  0  0  0  0  0
    4.6037   -1.4242   24.9531 C   0  0  0  0  0  0  0  0  0  0  0  0
    3.5428   -0.6625   25.6890 N   0  0  0  0  0  0  0  0  0  0  0  0
    3.1983   -1.3340   26.9574 C   0  0  0  0  0  0  0  0  0  0  0  0
    2.7524   -0.4191   28.1078 C   0  0  0  0  0  0  0  0  0  0  0  0
    1.9211    0.7529   27.6277 C   0  0  0  0  0  0  0  0  0  0  0  0
    2.6841    1.5491   26.5773 C   0  0  0  0  0  0  0  0  0  0  0  0
    3.7940    0.7530   25.8600 C   0  0  0  0  0  0  0  0  0  0  0  0
    7.2472   -0.5018   18.9346 N   0  0  0  0  0  0  0  0  0  0  0  0
    8.0547    0.0327   17.5097 C   0  0  0  0  0  0  0  0  0  0  0  0
    8.1018   -0.6880   16.2788 C   0  0  0  0  0  0  0  0  0  0  0  0
    9.1945   -0.2876   15.5654 N   0  0  0  0  0  0  0  0  0  0  0  0
    9.7483    0.7783   16.1088 N   0  0  0  0  0  0  0  0  0  0  0  0
    8.7905    1.2055   16.9715 C   0  0  0  0  0  0  0  0  0  0  0  0
    8.6329    2.8050   16.9999 C   0  0  0  0  0  0  0  0  0  0  0  0
    9.6342    3.5650   16.5745 N   0  0  0  0  0  0  0  0  0  0  0  0
    9.2869    4.8980   16.6013 C   0  0  0  0  0  0  0  0  0  0  0  0
    7.9872    5.1584   16.9620 C   0  0  0  0  0  0  0  0  0  0  0  0
    7.1829    3.6852   17.2751 S   0  0  0  0  0  0  0  0  0  0  0  0
    6.5955   -1.2814   21.1188 H   0  0  0  0  0  0  0  0  0  0  0  0
    5.5147   -1.7461   21.5050 H   0  0  0  0  0  0  0  0  0  0  0  0
    4.2269   -2.0203   23.0343 H   0  0  0  0  0  0  0  0  0  0  0  0
    5.8099   -2.3486   23.4047 H   0  0  0  0  0  0  0  0  0  0  0  0
    4.1751   -2.4376   25.0224 H   0  0  0  0  0  0  0  0  0  0  0  0
    5.4735   -1.5221   25.6098 H   0  0  0  0  0  0  0  0  0  0  0  0
    4.0436   -1.9232   27.3371 H   0  0  0  0  0  0  0  0  0  0  0  0
    2.3967   -2.0510   26.7498 H   0  0  0  0  0  0  0  0  0  0  0  0
    3.6410   -0.0362   28.6266 H   0  0  0  0  0  0  0  0  0  0  0  0
    2.1878   -1.0042   28.8427 H   0  0  0  0  0  0  0  0  0  0  0  0
    0.9764    0.3840   27.2137 H   0  0  0  0  0  0  0  0  0  0  0  0
    1.6530    1.4031   28.4682 H   0  0  0  0  0  0  0  0  0  0  0  0
    1.9724    1.9546   25.8480 H   0  0  0  0  0  0  0  0  0  0  0  0
    3.1484    2.4228   27.0524 H   0  0  0  0  0  0  0  0  0  0  0  0
    4.7412    0.9101   26.3884 H   0  0  0  0  0  0  0  0  0  0  0  0
    3.8551    1.1872   24.8681 H   0  0  0  0  0  0  0  0  0  0  0  0
    6.6072   -1.2852   18.8746 H   0  0  0  0  0  0  0  0  0  0  0  0
    7.5572   -1.5298   15.8774 H   0  0  0  0  0  0  0  0  0  0  0  0
    9.5938   -0.6883   14.7153 H   0  0  0  0  0  0  0  0  0  0  0  0
   10.0253    5.6431   16.3326 H   0  0  0  0  0  0  0  0  0  0  0  0
    7.4824    6.1103   17.0363 H   0  0  0  0  0  0  0  0  0  0  0  0
  1  2  2  0
  2  3  1  0
  3  4  1  0
  4  5  1  0
  5  6  1  0
  6  7  1  0
  7  8  1  0
  8  9  1  0
  9 10  1  0
 10 11  1  0
  2 12  1  0
 12 13  1  0
 13 14  2  0
 14 15  1  0
 15 16  1  0
 16 17  2  0
 17 18  1  0
 18 19  2  0
 19 20  1  0
 20 21  2  0
 21 22  1  0
 11  6  1  0
 17 13  1  0
 22 18  1  0
  3 23  1  0
  3 24  1  0
  4 25  1  0
  4 26  1  0
  5 27  1  0
  5 28  1  0
  7 29  1  0
  7 30  1  0
  8 31  1  0
  8 32  1  0
  9 33  1  0
  9 34  1  0
 10 35  1  0
 10 36  1  0
 11 37  1  0
 11 38  1  0
 12 39  1  0
 14 40  1  0
 15 41  1  0
 20 42  1  0
 21 43  1  0
M  END
>  <Energy>  (1109) 
444.5757538922042

>  <compound_id>  (1109) 
8628

>  <target_id>  (1109) 
1

>  <reference_id>  (1109) 
81

>  <inspiration_ids>  (1109) 
[81, 44]

>  <energy_score>  (1109) 
298.51577911981104

>  <distance_score>  (1109) 
5.9004233483220645

>  <path>  (1109) 
/opt/xchem-fragalysis-2/maxwin/BulkDock/SCRATCH/511016/C8628-P81/C8628-P81.minimised.mol

>  <scratch_subdir>  (1109) 
/opt/xchem-fragalysis-2/maxwin/BulkDock/SCRATCH/511016/C8628-P81

>  <fragmenstein_runtime>  (1109) 
9.747387170791626

>  <fragmenstein_outcome>  (1109) 
too moved

>  <fragmenstein_mode>  (1109) 
expansion

>  <fragmenstein_error>  (1109) 


$$$$
C8628-P44
     RDKit          3D

 43 45  0  0  0  0  0  0  0  0999 V2000
    7.5445    1.8408   20.1422 O   0  0  0  0  0  0  0  0  0  0  0  0
    7.5061    0.8757   19.4590 C   0  0  0  0  0  0  0  0  0  0  0  0
    6.6228   -0.5842   20.3929 C   0  0  0  0  0  0  0  0  0  0  0  0
    5.0707   -0.7925   21.8524 C   0  0  0  0  0  0  0  0  0  0  0  0
    4.9235   -0.3388   23.7833 C   0  0  0  0  0  0  0  0  0  0  0  0
    3.8815    0.1746   24.8560 N   0  0  0  0  0  0  0  0  0  0  0  0
    4.2076   -0.2946   26.2100 C   0  0  0  0  0  0  0  0  0  0  0  0
    3.0783    0.0206   27.2069 C   0  0  0  0  0  0  0  0  0  0  0  0
    2.4961    1.4254   27.0734 C   0  0  0  0  0  0  0  0  0  0  0  0
    3.3737    2.3051   26.2045 C   0  0  0  0  0  0  0  0  0  0  0  0
    3.7551    1.6580   24.8583 C   0  0  0  0  0  0  0  0  0  0  0  0
    8.0765    0.6365   18.1621 N   0  0  0  0  0  0  0  0  0  0  0  0
    8.7597    1.4935   17.2872 C   0  0  0  0  0  0  0  0  0  0  0  0
    8.7178    2.8466   17.5713 C   0  0  0  0  0  0  0  0  0  0  0  0
    9.4090    3.5055   16.6168 N   0  0  0  0  0  0  0  0  0  0  0  0
    9.9088    2.7051   15.6875 N   0  0  0  0  0  0  0  0  0  0  0  0
    9.5819    1.4628   16.0950 C   0  0  0  0  0  0  0  0  0  0  0  0
   10.2866    0.3022   15.2721 C   0  0  0  0  0  0  0  0  0  0  0  0
   11.2530    0.5796   14.4108 N   0  0  0  0  0  0  0  0  0  0  0  0
   11.8670   -0.5804   13.9896 C   0  0  0  0  0  0  0  0  0  0  0  0
   11.3462   -1.7397   14.5156 C   0  0  0  0  0  0  0  0  0  0  0  0
   10.0010   -1.3447   15.4924 S   0  0  0  0  0  0  0  0  0  0  0  0
    7.2350   -1.3294   20.7556 H   0  0  0  0  0  0  0  0  0  0  0  0
    6.8084   -1.0145   19.4141 H   0  0  0  0  0  0  0  0  0  0  0  0
    4.9693   -1.7978   22.3014 H   0  0  0  0  0  0  0  0  0  0  0  0
    4.4451    0.0359   21.5313 H   0  0  0  0  0  0  0  0  0  0  0  0
    5.0052   -1.3718   24.1662 H   0  0  0  0  0  0  0  0  0  0  0  0
    5.7317    0.2602   24.1513 H   0  0  0  0  0  0  0  0  0  0  0  0
    5.1495    0.1519   26.5549 H   0  0  0  0  0  0  0  0  0  0  0  0
    4.3562   -1.3810   26.2188 H   0  0  0  0  0  0  0  0  0  0  0  0
    3.4727   -0.1115   28.2222 H   0  0  0  0  0  0  0  0  0  0  0  0
    2.2678   -0.7092   27.1065 H   0  0  0  0  0  0  0  0  0  0  0  0
    1.4852    1.3744   26.6576 H   0  0  0  0  0  0  0  0  0  0  0  0
    2.3825    1.8754   28.0668 H   0  0  0  0  0  0  0  0  0  0  0  0
    2.8809    3.2676   26.0247 H   0  0  0  0  0  0  0  0  0  0  0  0
    4.2949    2.5286   26.7593 H   0  0  0  0  0  0  0  0  0  0  0  0
    4.6902    2.1395   24.5720 H   0  0  0  0  0  0  0  0  0  0  0  0
    3.0184    1.9650   24.1096 H   0  0  0  0  0  0  0  0  0  0  0  0
    7.7882   -0.2322   17.8470 H   0  0  0  0  0  0  0  0  0  0  0  0
    8.2438    3.3956   18.3726 H   0  0  0  0  0  0  0  0  0  0  0  0
    9.5895    4.5009   16.5491 H   0  0  0  0  0  0  0  0  0  0  0  0
   12.6939   -0.5220   13.2936 H   0  0  0  0  0  0  0  0  0  0  0  0
   11.6475   -2.7609   14.3332 H   0  0  0  0  0  0  0  0  0  0  0  0
  1  2  2  0
  2  3  1  0
  3  4  1  0
  4  5  1  0
  5  6  1  0
  6  7  1  0
  7  8  1  0
  8  9  1  0
  9 10  1  0
 10 11  1  0
  2 12  1  0
 12 13  1  0
 13 14  2  0
 14 15  1  0
 15 16  1  0
 16 17  2  0
 17 18  1  0
 18 19  2  0
 19 20  1  0
 20 21  2  0
 21 22  1  0
 11  6  1  0
 17 13  1  0
 22 18  1  0
  3 23  1  0
  3 24  1  0
  4 25  1  0
  4 26  1  0
  5 27  1  0
  5 28  1  0
  7 29  1  0
  7 30  1  0
  8 31  1  0
  8 32  1  0
  9 33  1  0
  9 34  1  0
 10 35  1  0
 10 36  1  0
 11 37  1  0
 11 38  1  0
 12 39  1  0
 14 40  1  0
 15 41  1  0
 20 42  1  0
 21 43  1  0
M  END
>  <Energy>  (1110) 
359.13991019513844

>  <compound_id>  (1110) 
8628

>  <target_id>  (1110) 
1

>  <reference_id>  (1110) 
44

>  <inspiration_ids>  (1110) 
[81, 44]

>  <energy_score>  (1110) 
213.07993542275068

>  <distance_score>  (1110) 
6.320982775610672

>  <path>  (1110) 
/opt/xchem-fragalysis-2/maxwin/BulkDock/SCRATCH/511016/C8628-P44/C8628-P44.minimised.mol

>  <scratch_subdir>  (1110) 
/opt/xchem-fragalysis-2/maxwin/BulkDock/SCRATCH/511016/C8628-P44

>  <fragmenstein_runtime>  (1110) 
10.102584838867188

>  <fragmenstein_outcome>  (1110) 
too moved

>  <fragmenstein_mode>  (1110) 
expansion

>  <fragmenstein_error>  (1110) 


$$$$
C8629-P81
     RDKit          3D

 43 45  0  0  0  0  0  0  0  0999 V2000
    7.5475   -0.1848   20.0004 O   0  0  0  0  0  0  0  0  0  0  0  0
    7.3883    1.0286   19.8823 C   0  0  0  0  0  0  0  0  0  0  0  0
    6.8123    1.9290   21.5647 C   0  0  0  0  0  0  0  0  0  0  0  0
    5.0390    1.0763   22.1416 C   0  0  0  0  0  0  0  0  0  0  0  0
    3.3165    1.9126   22.3833 C   0  0  0  0  0  0  0  0  0  0  0  0
    3.0101    3.3400   22.8665 N   0  0  0  0  0  0  0  0  0  0  0  0
    1.9937    3.9292   21.9610 C   0  0  0  0  0  0  0  0  0  0  0  0
    1.5690    5.3373   22.3897 C   0  0  0  0  0  0  0  0  0  0  0  0
    1.0518    5.3718   23.8215 C   0  0  0  0  0  0  0  0  0  0  0  0
    2.0661    4.7226   24.7489 C   0  0  0  0  0  0  0  0  0  0  0  0
    2.4230    3.3263   24.2441 C   0  0  0  0  0  0  0  0  0  0  0  0
    7.6983    2.0282   18.5535 N   0  0  0  0  0  0  0  0  0  0  0  0
    8.3044    1.7379   17.2976 C   0  0  0  0  0  0  0  0  0  0  0  0
    8.5422    0.5774   16.5480 C   0  0  0  0  0  0  0  0  0  0  0  0
    9.4187    0.7481   15.5577 N   0  0  0  0  0  0  0  0  0  0  0  0
    9.7207    2.0726   15.6079 N   0  0  0  0  0  0  0  0  0  0  0  0
   10.5833    2.6003   14.6311 C   0  0  0  0  0  0  0  0  0  0  0  0
   11.0131    1.9355   13.5754 N   0  0  0  0  0  0  0  0  0  0  0  0
   11.8514    2.7470   12.8365 C   0  0  0  0  0  0  0  0  0  0  0  0
   12.0005    4.0333   13.3100 C   0  0  0  0  0  0  0  0  0  0  0  0
   11.0752    4.2325   14.7415 S   0  0  0  0  0  0  0  0  0  0  0  0
    9.0320    2.6988   16.6273 C   0  0  0  0  0  0  0  0  0  0  0  0
    6.7270    3.0206   21.4266 H   0  0  0  0  0  0  0  0  0  0  0  0
    7.7269    1.8535   22.1364 H   0  0  0  0  0  0  0  0  0  0  0  0
    4.7770    1.2399   23.1437 H   0  0  0  0  0  0  0  0  0  0  0  0
    4.9949    0.0273   21.8770 H   0  0  0  0  0  0  0  0  0  0  0  0
    2.7095    1.6689   21.5132 H   0  0  0  0  0  0  0  0  0  0  0  0
    2.9296    1.4447   23.2702 H   0  0  0  0  0  0  0  0  0  0  0  0
    2.3970    3.9953   20.9439 H   0  0  0  0  0  0  0  0  0  0  0  0
    1.1001    3.2929   21.9118 H   0  0  0  0  0  0  0  0  0  0  0  0
    0.7935    5.7095   21.7105 H   0  0  0  0  0  0  0  0  0  0  0  0
    2.4255    6.0170   22.2960 H   0  0  0  0  0  0  0  0  0  0  0  0
    0.8632    6.4057   24.1304 H   0  0  0  0  0  0  0  0  0  0  0  0
    0.0967    4.8359   23.8816 H   0  0  0  0  0  0  0  0  0  0  0  0
    2.9712    5.3396   24.8087 H   0  0  0  0  0  0  0  0  0  0  0  0
    1.6518    4.6577   25.7613 H   0  0  0  0  0  0  0  0  0  0  0  0
    1.5094    2.7188   24.2713 H   0  0  0  0  0  0  0  0  0  0  0  0
    3.1111    2.8739   24.9617 H   0  0  0  0  0  0  0  0  0  0  0  0
    7.5381    2.9882   18.8081 H   0  0  0  0  0  0  0  0  0  0  0  0
    8.1111   -0.3943   16.6827 H   0  0  0  0  0  0  0  0  0  0  0  0
   12.3317    2.3470   11.9508 H   0  0  0  0  0  0  0  0  0  0  0  0
   12.5947    4.8381   12.9006 H   0  0  0  0  0  0  0  0  0  0  0  0
    9.1687    3.7495   16.8322 H   0  0  0  0  0  0  0  0  0  0  0  0
  1  2  2  0
  2  3  1  0
  3  4  1  0
  4  5  1  0
  5  6  1  0
  6  7  1  0
  7  8  1  0
  8  9  1  0
  9 10  1  0
 10 11  1  0
  2 12  1  0
 12 13  1  0
 13 14  1  0
 14 15  2  0
 15 16  1  0
 16 17  1  0
 17 18  2  0
 18 19  1  0
 19 20  2  0
 20 21  1  0
 16 22  1  0
 11  6  1  0
 22 13  2  0
 21 17  1  0
  3 23  1  0
  3 24  1  0
  4 25  1  0
  4 26  1  0
  5 27  1  0
  5 28  1  0
  7 29  1  0
  7 30  1  0
  8 31  1  0
  8 32  1  0
  9 33  1  0
  9 34  1  0
 10 35  1  0
 10 36  1  0
 11 37  1  0
 11 38  1  0
 12 39  1  0
 14 40  1  0
 19 41  1  0
 20 42  1  0
 22 43  1  0
M  END
>  <Energy>  (1111) 
280.45303937473773

>  <compound_id>  (1111) 
8629

>  <target_id>  (1111) 
1

>  <reference_id>  (1111) 
81

>  <inspiration_ids>  (1111) 
[81, 44]

>  <energy_score>  (1111) 
146.80023356962704

>  <distance_score>  (1111) 
6.456825246621215

>  <path>  (1111) 
/opt/xchem-fragalysis-2/maxwin/BulkDock/SCRATCH/511016/C8629-P81/C8629-P81.minimised.mol

>  <scratch_subdir>  (1111) 
/opt/xchem-fragalysis-2/maxwin/BulkDock/SCRATCH/511016/C8629-P81

>  <fragmenstein_runtime>  (1111) 
12.318593740463257

>  <fragmenstein_outcome>  (1111) 
too moved

>  <fragmenstein_mode>  (1111) 
expansion

>  <fragmenstein_error>  (1111) 


$$$$
C8629-P44
     RDKit          3D

 43 45  0  0  0  0  0  0  0  0999 V2000
    5.3093    0.5612   23.8289 O   0  0  0  0  0  0  0  0  0  0  0  0
    4.6255    1.0269   22.8878 C   0  0  0  0  0  0  0  0  0  0  0  0
    3.2913    1.9044   23.4532 C   0  0  0  0  0  0  0  0  0  0  0  0
    3.6485    3.0791   24.3911 C   0  0  0  0  0  0  0  0  0  0  0  0
    2.9460    3.0089   25.7818 C   0  0  0  0  0  0  0  0  0  0  0  0
    1.4702    2.8804   25.7830 N   0  0  0  0  0  0  0  0  0  0  0  0
    0.7977    4.0539   25.2085 C   0  0  0  0  0  0  0  0  0  0  0  0
   -0.7255    3.8793   25.1971 C   0  0  0  0  0  0  0  0  0  0  0  0
   -1.2680    3.5944   26.5910 C   0  0  0  0  0  0  0  0  0  0  0  0
   -0.5175    2.4290   27.2193 C   0  0  0  0  0  0  0  0  0  0  0  0
    0.9965    2.6427   27.1624 C   0  0  0  0  0  0  0  0  0  0  0  0
    4.9224    1.0334   21.1297 N   0  0  0  0  0  0  0  0  0  0  0  0
    6.5184    0.4562   20.0931 C   0  0  0  0  0  0  0  0  0  0  0  0
    7.5262    1.8598   19.6789 C   0  0  0  0  0  0  0  0  0  0  0  0
    8.4577    1.9409   18.7556 N   0  0  0  0  0  0  0  0  0  0  0  0
    8.7397    0.6766   18.5763 N   0  0  0  0  0  0  0  0  0  0  0  0
   10.3934    0.5192   18.2612 C   0  0  0  0  0  0  0  0  0  0  0  0
   11.6832   -0.9741   18.4574 N   0  0  0  0  0  0  0  0  0  0  0  0
   13.1745   -0.5327   19.8816 C   0  0  0  0  0  0  0  0  0  0  0  0
   13.3711    1.3050   20.0511 C   0  0  0  0  0  0  0  0  0  0  0  0
   11.1829    2.2884   19.9507 S   0  0  0  0  0  0  0  0  0  0  0  0
    7.3455   -0.0336   18.9404 C   0  0  0  0  0  0  0  0  0  0  0  0
    2.7845    1.2693   24.1549 H   0  0  0  0  0  0  0  0  0  0  0  0
    2.7209    2.3086   22.6191 H   0  0  0  0  0  0  0  0  0  0  0  0
    3.3854    4.0223   23.8982 H   0  0  0  0  0  0  0  0  0  0  0  0
    4.7297    3.1188   24.5607 H   0  0  0  0  0  0  0  0  0  0  0  0
    3.2457    3.8930   26.3600 H   0  0  0  0  0  0  0  0  0  0  0  0
    3.3724    2.1394   26.3001 H   0  0  0  0  0  0  0  0  0  0  0  0
    1.0605    4.9638   25.7634 H   0  0  0  0  0  0  0  0  0  0  0  0
    1.1170    4.2007   24.1710 H   0  0  0  0  0  0  0  0  0  0  0  0
   -0.9959    3.0571   24.5227 H   0  0  0  0  0  0  0  0  0  0  0  0
   -1.1962    4.7849   24.7977 H   0  0  0  0  0  0  0  0  0  0  0  0
   -1.1532    4.4862   27.2193 H   0  0  0  0  0  0  0  0  0  0  0  0
   -2.3395    3.3711   26.5417 H   0  0  0  0  0  0  0  0  0  0  0  0
   -0.8344    2.3042   28.2608 H   0  0  0  0  0  0  0  0  0  0  0  0
   -0.7775    1.5011   26.6948 H   0  0  0  0  0  0  0  0  0  0  0  0
    1.4767    1.7432   27.5667 H   0  0  0  0  0  0  0  0  0  0  0  0
    1.2729    3.4813   27.8152 H   0  0  0  0  0  0  0  0  0  0  0  0
    4.1224    1.4108   20.6537 H   0  0  0  0  0  0  0  0  0  0  0  0
    7.2231    2.8371   19.9876 H   0  0  0  0  0  0  0  0  0  0  0  0
   13.9529   -1.3025   19.9608 H   0  0  0  0  0  0  0  0  0  0  0  0
   13.9409    1.8274   20.8108 H   0  0  0  0  0  0  0  0  0  0  0  0
    6.8822   -0.2701   18.0015 H   0  0  0  0  0  0  0  0  0  0  0  0
  1  2  2  0
  2  3  1  0
  3  4  1  0
  4  5  1  0
  5  6  1  0
  6  7  1  0
  7  8  1  0
  8  9  1  0
  9 10  1  0
 10 11  1  0
  2 12  1  0
 12 13  1  0
 13 14  1  0
 14 15  2  0
 15 16  1  0
 16 17  1  0
 17 18  2  0
 18 19  1  0
 19 20  2  0
 20 21  1  0
 16 22  1  0
 11  6  1  0
 22 13  2  0
 21 17  1  0
  3 23  1  0
  3 24  1  0
  4 25  1  0
  4 26  1  0
  5 27  1  0
  5 28  1  0
  7 29  1  0
  7 30  1  0
  8 31  1  0
  8 32  1  0
  9 33  1  0
  9 34  1  0
 10 35  1  0
 10 36  1  0
 11 37  1  0
 11 38  1  0
 12 39  1  0
 14 40  1  0
 19 41  1  0
 20 42  1  0
 22 43  1  0
M  END
>  <Energy>  (1112) 
1085.2759732551867

>  <compound_id>  (1112) 
8629

>  <target_id>  (1112) 
1

>  <reference_id>  (1112) 
44

>  <inspiration_ids>  (1112) 
[81, 44]

>  <energy_score>  (1112) 
951.6231674500779

>  <distance_score>  (1112) 
5.438379211734222

>  <path>  (1112) 
/opt/xchem-fragalysis-2/maxwin/BulkDock/SCRATCH/511016/C8629-P44/C8629-P44.minimised.mol

>  <scratch_subdir>  (1112) 
/opt/xchem-fragalysis-2/maxwin/BulkDock/SCRATCH/511016/C8629-P44

>  <fragmenstein_runtime>  (1112) 
12.616223096847534

>  <fragmenstein_outcome>  (1112) 
too moved

>  <fragmenstein_mode>  (1112) 
expansion

>  <fragmenstein_error>  (1112) 


$$$$
C8630-P81
     RDKit          3D

 44 45  0  0  0  0  0  0  0  0999 V2000
    7.3667   -0.9555   19.8911 O   0  0  0  0  0  0  0  0  0  0  0  0
    7.0589    0.1469   20.1802 C   0  0  0  0  0  0  0  0  0  0  0  0
    5.7095    0.3056   21.8004 C   0  0  0  0  0  0  0  0  0  0  0  0
    4.2039    1.2787   22.6347 C   0  0  0  0  0  0  0  0  0  0  0  0
    3.2167    2.7162   22.9112 C   0  0  0  0  0  0  0  0  0  0  0  0
    2.1261    2.6909   23.9598 N   0  0  0  0  0  0  0  0  0  0  0  0
    2.6096    2.6547   25.3451 C   0  0  0  0  0  0  0  0  0  0  0  0
    1.4716    2.6446   26.3795 C   0  0  0  0  0  0  0  0  0  0  0  0
    0.4957    3.7926   26.1692 C   0  0  0  0  0  0  0  0  0  0  0  0
    0.0358    3.8265   24.7213 C   0  0  0  0  0  0  0  0  0  0  0  0
    1.2299    3.8495   23.7640 C   0  0  0  0  0  0  0  0  0  0  0  0
    7.4368    1.4941   19.3909 N   0  0  0  0  0  0  0  0  0  0  0  0
    8.2256    1.7467   17.9078 C   0  0  0  0  0  0  0  0  0  0  0  0
    8.0713    3.0348   17.3806 C   0  0  0  0  0  0  0  0  0  0  0  0
    8.7707    3.1148   16.2291 N   0  0  0  0  0  0  0  0  0  0  0  0
    9.3281    1.9660   15.8713 N   0  0  0  0  0  0  0  0  0  0  0  0
    8.9681    1.1043   16.8266 C   0  0  0  0  0  0  0  0  0  0  0  0
    9.4208   -0.1633   16.6422 O   0  0  0  0  0  0  0  0  0  0  0  0
   10.6801   -0.2271   15.9009 C   0  0  0  0  0  0  0  0  0  0  0  0
   10.5774   -0.0682   14.3907 C   0  0  0  0  0  0  0  0  0  0  0  0
   11.0304    1.1482   13.9780 F   0  0  0  0  0  0  0  0  0  0  0  0
   11.4177   -0.9651   13.8038 F   0  0  0  0  0  0  0  0  0  0  0  0
    5.6024   -0.7660   22.1121 H   0  0  0  0  0  0  0  0  0  0  0  0
    4.8665    0.1625   21.2667 H   0  0  0  0  0  0  0  0  0  0  0  0
    4.1373    0.9903   23.6900 H   0  0  0  0  0  0  0  0  0  0  0  0
    3.4528    1.0226   21.8886 H   0  0  0  0  0  0  0  0  0  0  0  0
    2.6705    2.8546   21.9644 H   0  0  0  0  0  0  0  0  0  0  0  0
    3.8030    3.6317   23.0525 H   0  0  0  0  0  0  0  0  0  0  0  0
    3.2092    1.7554   25.5164 H   0  0  0  0  0  0  0  0  0  0  0  0
    3.2402    3.5291   25.5472 H   0  0  0  0  0  0  0  0  0  0  0  0
    0.9254    1.6982   26.3326 H   0  0  0  0  0  0  0  0  0  0  0  0
    1.8976    2.7071   27.3877 H   0  0  0  0  0  0  0  0  0  0  0  0
   -0.3649    3.6852   26.8386 H   0  0  0  0  0  0  0  0  0  0  0  0
    0.9851    4.7410   26.4221 H   0  0  0  0  0  0  0  0  0  0  0  0
   -0.5893    2.9499   24.5102 H   0  0  0  0  0  0  0  0  0  0  0  0
   -0.5886    4.7112   24.5529 H   0  0  0  0  0  0  0  0  0  0  0  0
    1.7838    4.7895   23.8876 H   0  0  0  0  0  0  0  0  0  0  0  0
    0.8314    3.8397   22.7421 H   0  0  0  0  0  0  0  0  0  0  0  0
    7.1321    2.2687   19.9107 H   0  0  0  0  0  0  0  0  0  0  0  0
    7.5152    3.8852   17.7440 H   0  0  0  0  0  0  0  0  0  0  0  0
    8.8885    3.9219   15.6255 H   0  0  0  0  0  0  0  0  0  0  0  0
   11.0732   -1.2302   16.1005 H   0  0  0  0  0  0  0  0  0  0  0  0
   11.4128    0.4782   16.3094 H   0  0  0  0  0  0  0  0  0  0  0  0
    9.5581   -0.1972   14.0280 H   0  0  0  0  0  0  0  0  0  0  0  0
  1  2  2  0
  2  3  1  0
  3  4  1  0
  4  5  1  0
  5  6  1  0
  6  7  1  0
  7  8  1  0
  8  9  1  0
  9 10  1  0
 10 11  1  0
  2 12  1  0
 12 13  1  0
 13 14  2  0
 14 15  1  0
 15 16  1  0
 16 17  2  0
 17 18  1  0
 18 19  1  0
 19 20  1  0
 20 21  1  0
 20 22  1  0
 11  6  1  0
 17 13  1  0
  3 23  1  0
  3 24  1  0
  4 25  1  0
  4 26  1  0
  5 27  1  0
  5 28  1  0
  7 29  1  0
  7 30  1  0
  8 31  1  0
  8 32  1  0
  9 33  1  0
  9 34  1  0
 10 35  1  0
 10 36  1  0
 11 37  1  0
 11 38  1  0
 12 39  1  0
 14 40  1  0
 15 41  1  0
 19 42  1  0
 19 43  1  0
 20 44  1  0
M  END
>  <Energy>  (1113) 
323.99920919051738

>  <compound_id>  (1113) 
8630

>  <target_id>  (1113) 
1

>  <reference_id>  (1113) 
81

>  <inspiration_ids>  (1113) 
[81, 44]

>  <energy_score>  (1113) 
257.9833809466478

>  <distance_score>  (1113) 
5.980327216510675

>  <path>  (1113) 
/opt/xchem-fragalysis-2/maxwin/BulkDock/SCRATCH/511016/C8630-P81/C8630-P81.minimised.mol

>  <scratch_subdir>  (1113) 
/opt/xchem-fragalysis-2/maxwin/BulkDock/SCRATCH/511016/C8630-P81

>  <fragmenstein_runtime>  (1113) 
11.473966121673584

>  <fragmenstein_outcome>  (1113) 
too moved

>  <fragmenstein_mode>  (1113) 
expansion

>  <fragmenstein_error>  (1113) 


$$$$
C8630-P44
     RDKit          3D

 44 45  0  0  0  0  0  0  0  0999 V2000
    7.3694   -1.8579   20.8809 O   0  0  0  0  0  0  0  0  0  0  0  0
    6.6489   -0.9684   20.5563 C   0  0  0  0  0  0  0  0  0  0  0  0
    5.0427   -0.8256   21.9123 C   0  0  0  0  0  0  0  0  0  0  0  0
    4.9365   -0.3386   23.8069 C   0  0  0  0  0  0  0  0  0  0  0  0
    3.9734    0.2268   24.9757 C   0  0  0  0  0  0  0  0  0  0  0  0
    3.2828    1.5221   25.1094 N   0  0  0  0  0  0  0  0  0  0  0  0
    2.7140    1.6973   26.4597 C   0  0  0  0  0  0  0  0  0  0  0  0
    1.6140    2.7697   26.4537 C   0  0  0  0  0  0  0  0  0  0  0  0
    1.8700    3.8667   25.4211 C   0  0  0  0  0  0  0  0  0  0  0  0
    3.3658    4.0213   25.1713 C   0  0  0  0  0  0  0  0  0  0  0  0
    4.0178    2.7065   24.6953 C   0  0  0  0  0  0  0  0  0  0  0  0
    6.9954    0.1183   19.2482 N   0  0  0  0  0  0  0  0  0  0  0  0
    8.0947    0.1402   18.2574 C   0  0  0  0  0  0  0  0  0  0  0  0
    7.6968    0.2134   16.8834 C   0  0  0  0  0  0  0  0  0  0  0  0
    7.8930    1.6136   16.5665 N   0  0  0  0  0  0  0  0  0  0  0  0
    8.8510    2.1084   17.3384 N   0  0  0  0  0  0  0  0  0  0  0  0
    9.2413    0.9045   17.7242 C   0  0  0  0  0  0  0  0  0  0  0  0
   10.0185    0.2253   16.7378 O   0  0  0  0  0  0  0  0  0  0  0  0
   10.4691    0.9713   15.5778 C   0  0  0  0  0  0  0  0  0  0  0  0
   11.3510    0.0883   14.7057 C   0  0  0  0  0  0  0  0  0  0  0  0
   11.5127    0.6802   13.4907 F   0  0  0  0  0  0  0  0  0  0  0  0
   12.5921   -0.0084   15.2473 F   0  0  0  0  0  0  0  0  0  0  0  0
    4.8897   -1.8056   22.4109 H   0  0  0  0  0  0  0  0  0  0  0  0
    4.4637    0.0139   21.5403 H   0  0  0  0  0  0  0  0  0  0  0  0
    5.7384    0.3007   24.0978 H   0  0  0  0  0  0  0  0  0  0  0  0
    5.0744   -1.3468   24.2493 H   0  0  0  0  0  0  0  0  0  0  0  0
    4.6265    0.1656   25.8639 H   0  0  0  0  0  0  0  0  0  0  0  0
    3.2372   -0.5297   25.1782 H   0  0  0  0  0  0  0  0  0  0  0  0
    2.2712    0.7654   26.8334 H   0  0  0  0  0  0  0  0  0  0  0  0
    3.5050    1.9688   27.1715 H   0  0  0  0  0  0  0  0  0  0  0  0
    0.6350    2.3177   26.2562 H   0  0  0  0  0  0  0  0  0  0  0  0
    1.5547    3.2128   27.4552 H   0  0  0  0  0  0  0  0  0  0  0  0
    1.3709    3.6073   24.4788 H   0  0  0  0  0  0  0  0  0  0  0  0
    1.4339    4.8125   25.7604 H   0  0  0  0  0  0  0  0  0  0  0  0
    3.5442    4.8085   24.4299 H   0  0  0  0  0  0  0  0  0  0  0  0
    3.8486    4.3470   26.1018 H   0  0  0  0  0  0  0  0  0  0  0  0
    5.0483    2.6861   25.0686 H   0  0  0  0  0  0  0  0  0  0  0  0
    4.0548    2.7226   23.6032 H   0  0  0  0  0  0  0  0  0  0  0  0
    6.2427    0.6928   19.1144 H   0  0  0  0  0  0  0  0  0  0  0  0
    6.9200   -0.2976   16.3376 H   0  0  0  0  0  0  0  0  0  0  0  0
    7.2398    2.2256   16.0901 H   0  0  0  0  0  0  0  0  0  0  0  0
   11.0152    1.8713   15.8701 H   0  0  0  0  0  0  0  0  0  0  0  0
    9.6226    1.2635   14.9484 H   0  0  0  0  0  0  0  0  0  0  0  0
   10.9485   -0.9192   14.5721 H   0  0  0  0  0  0  0  0  0  0  0  0
  1  2  2  0
  2  3  1  0
  3  4  1  0
  4  5  1  0
  5  6  1  0
  6  7  1  0
  7  8  1  0
  8  9  1  0
  9 10  1  0
 10 11  1  0
  2 12  1  0
 12 13  1  0
 13 14  2  0
 14 15  1  0
 15 16  1  0
 16 17  2  0
 17 18  1  0
 18 19  1  0
 19 20  1  0
 20 21  1  0
 20 22  1  0
 11  6  1  0
 17 13  1  0
  3 23  1  0
  3 24  1  0
  4 25  1  0
  4 26  1  0
  5 27  1  0
  5 28  1  0
  7 29  1  0
  7 30  1  0
  8 31  1  0
  8 32  1  0
  9 33  1  0
  9 34  1  0
 10 35  1  0
 10 36  1  0
 11 37  1  0
 11 38  1  0
 12 39  1  0
 14 40  1  0
 15 41  1  0
 19 42  1  0
 19 43  1  0
 20 44  1  0
M  END
>  <Energy>  (1114) 
397.03536116806276

>  <compound_id>  (1114) 
8630

>  <target_id>  (1114) 
1

>  <reference_id>  (1114) 
44

>  <inspiration_ids>  (1114) 
[81, 44]

>  <energy_score>  (1114) 
331.0195329241986

>  <distance_score>  (1114) 
5.4114826940147625

>  <path>  (1114) 
/opt/xchem-fragalysis-2/maxwin/BulkDock/SCRATCH/511016/C8630-P44/C8630-P44.minimised.mol

>  <scratch_subdir>  (1114) 
/opt/xchem-fragalysis-2/maxwin/BulkDock/SCRATCH/511016/C8630-P44

>  <fragmenstein_runtime>  (1114) 
11.92479157447815

>  <fragmenstein_outcome>  (1114) 
too moved

>  <fragmenstein_mode>  (1114) 
expansion

>  <fragmenstein_error>  (1114) 


$$$$
C8631-P81
     RDKit          3D

 40 41  0  0  0  0  0  0  0  0999 V2000
    7.6376    1.0573   20.7850 O   0  0  0  0  0  0  0  0  0  0  0  0
    7.1052    0.0572   20.3490 C   0  0  0  0  0  0  0  0  0  0  0  0
    5.7664   -0.6901   21.7449 C   0  0  0  0  0  0  0  0  0  0  0  0
    5.0919   -1.5801   23.3413 C   0  0  0  0  0  0  0  0  0  0  0  0
    4.5751   -1.4276   25.0029 C   0  0  0  0  0  0  0  0  0  0  0  0
    3.4928   -0.6577   25.7021 N   0  0  0  0  0  0  0  0  0  0  0  0
    3.1699   -1.2898   26.9963 C   0  0  0  0  0  0  0  0  0  0  0  0
    2.0668   -0.5629   27.7764 C   0  0  0  0  0  0  0  0  0  0  0  0
    2.4129    0.9014   27.9958 C   0  0  0  0  0  0  0  0  0  0  0  0
    2.7662    1.5659   26.6775 C   0  0  0  0  0  0  0  0  0  0  0  0
    3.7980    0.7554   25.8757 C   0  0  0  0  0  0  0  0  0  0  0  0
    7.2265   -0.5546   18.9968 N   0  0  0  0  0  0  0  0  0  0  0  0
    8.0331   -0.0245   17.5904 C   0  0  0  0  0  0  0  0  0  0  0  0
    8.4791    1.3323   17.1930 C   0  0  0  0  0  0  0  0  0  0  0  0
    9.2931    1.3762   16.1339 N   0  0  0  0  0  0  0  0  0  0  0  0
    9.3321    0.0950   15.7540 N   0  0  0  0  0  0  0  0  0  0  0  0
   10.3725   -0.4108   14.8591 C   0  0  0  0  0  0  0  0  0  0  0  0
   11.5982    0.0741   15.1989 F   0  0  0  0  0  0  0  0  0  0  0  0
   10.4657   -1.7637   14.9632 F   0  0  0  0  0  0  0  0  0  0  0  0
    8.3255   -0.6417   16.3503 C   0  0  0  0  0  0  0  0  0  0  0  0
    4.9846    0.0710   21.7525 H   0  0  0  0  0  0  0  0  0  0  0  0
    5.7108   -1.7452   21.4508 H   0  0  0  0  0  0  0  0  0  0  0  0
    4.1956   -2.0897   23.0836 H   0  0  0  0  0  0  0  0  0  0  0  0
    5.8041   -2.3431   23.4884 H   0  0  0  0  0  0  0  0  0  0  0  0
    4.1735   -2.4482   25.1046 H   0  0  0  0  0  0  0  0  0  0  0  0
    5.4453   -1.4809   25.6643 H   0  0  0  0  0  0  0  0  0  0  0  0
    4.0695   -1.3431   27.6241 H   0  0  0  0  0  0  0  0  0  0  0  0
    2.8313   -2.3197   26.8319 H   0  0  0  0  0  0  0  0  0  0  0  0
    1.9268   -1.0534   28.7467 H   0  0  0  0  0  0  0  0  0  0  0  0
    1.1115   -0.6431   27.2487 H   0  0  0  0  0  0  0  0  0  0  0  0
    1.5750    1.4227   28.4713 H   0  0  0  0  0  0  0  0  0  0  0  0
    3.2668    0.9745   28.6805 H   0  0  0  0  0  0  0  0  0  0  0  0
    1.8560    1.7101   26.0857 H   0  0  0  0  0  0  0  0  0  0  0  0
    3.1642    2.5699   26.8672 H   0  0  0  0  0  0  0  0  0  0  0  0
    4.7767    0.8768   26.3532 H   0  0  0  0  0  0  0  0  0  0  0  0
    3.8113    1.1994   24.8848 H   0  0  0  0  0  0  0  0  0  0  0  0
    6.5831   -1.3365   18.9357 H   0  0  0  0  0  0  0  0  0  0  0  0
    8.2381    2.2616   17.6924 H   0  0  0  0  0  0  0  0  0  0  0  0
   10.1322   -0.0987   13.8418 H   0  0  0  0  0  0  0  0  0  0  0  0
    8.0911   -1.5920   15.8940 H   0  0  0  0  0  0  0  0  0  0  0  0
  1  2  2  0
  2  3  1  0
  3  4  1  0
  4  5  1  0
  5  6  1  0
  6  7  1  0
  7  8  1  0
  8  9  1  0
  9 10  1  0
 10 11  1  0
  2 12  1  0
 12 13  1  0
 13 14  1  0
 14 15  2  0
 15 16  1  0
 16 17  1  0
 17 18  1  0
 17 19  1  0
 16 20  1  0
 11  6  1  0
 20 13  2  0
  3 21  1  0
  3 22  1  0
  4 23  1  0
  4 24  1  0
  5 25  1  0
  5 26  1  0
  7 27  1  0
  7 28  1  0
  8 29  1  0
  8 30  1  0
  9 31  1  0
  9 32  1  0
 10 33  1  0
 10 34  1  0
 11 35  1  0
 11 36  1  0
 12 37  1  0
 14 38  1  0
 17 39  1  0
 20 40  1  0
M  END
>  <Energy>  (1115) 
334.52714032027546

>  <compound_id>  (1115) 
8631

>  <target_id>  (1115) 
1

>  <reference_id>  (1115) 
81

>  <inspiration_ids>  (1115) 
[81, 44]

>  <energy_score>  (1115) 
257.2705718622205

>  <distance_score>  (1115) 
5.869289126572904

>  <path>  (1115) 
/opt/xchem-fragalysis-2/maxwin/BulkDock/SCRATCH/511016/C8631-P81/C8631-P81.minimised.mol

>  <scratch_subdir>  (1115) 
/opt/xchem-fragalysis-2/maxwin/BulkDock/SCRATCH/511016/C8631-P81

>  <fragmenstein_runtime>  (1115) 
9.857012510299683

>  <fragmenstein_outcome>  (1115) 
too moved

>  <fragmenstein_mode>  (1115) 
expansion

>  <fragmenstein_error>  (1115) 


$$$$
C8631-P44
     RDKit          3D

 40 41  0  0  0  0  0  0  0  0999 V2000
    8.6060   -0.0498   20.0223 O   0  0  0  0  0  0  0  0  0  0  0  0
    7.5733   -0.2387   19.4859 C   0  0  0  0  0  0  0  0  0  0  0  0
    6.3343   -1.1656   20.7157 C   0  0  0  0  0  0  0  0  0  0  0  0
    5.0091   -0.8480   22.2807 C   0  0  0  0  0  0  0  0  0  0  0  0
    4.9339   -0.3249   24.1068 C   0  0  0  0  0  0  0  0  0  0  0  0
    3.8211    0.2412   25.0033 N   0  0  0  0  0  0  0  0  0  0  0  0
    3.9779   -0.1703   26.4061 C   0  0  0  0  0  0  0  0  0  0  0  0
    2.7686    0.2421   27.2638 C   0  0  0  0  0  0  0  0  0  0  0  0
    2.3019    1.6775   27.0351 C   0  0  0  0  0  0  0  0  0  0  0  0
    3.3028    2.4561   26.2034 C   0  0  0  0  0  0  0  0  0  0  0  0
    3.7351    1.7228   24.9185 C   0  0  0  0  0  0  0  0  0  0  0  0
    7.2004   -0.0068   18.1998 N   0  0  0  0  0  0  0  0  0  0  0  0
    7.9437    0.4365   17.0845 C   0  0  0  0  0  0  0  0  0  0  0  0
    8.1134   -0.1700   15.8196 C   0  0  0  0  0  0  0  0  0  0  0  0
    9.0445    0.4360   15.0845 N   0  0  0  0  0  0  0  0  0  0  0  0
    9.4326    1.4811   15.8441 N   0  0  0  0  0  0  0  0  0  0  0  0
   10.2494    2.5384   15.2564 C   0  0  0  0  0  0  0  0  0  0  0  0
   10.0607    3.7367   15.8736 F   0  0  0  0  0  0  0  0  0  0  0  0
   11.5780    2.2583   15.3313 F   0  0  0  0  0  0  0  0  0  0  0  0
    8.9064    1.4241   17.1063 C   0  0  0  0  0  0  0  0  0  0  0  0
    7.1521   -1.8038   20.9551 H   0  0  0  0  0  0  0  0  0  0  0  0
    5.8111   -2.1449   20.4619 H   0  0  0  0  0  0  0  0  0  0  0  0
    4.4867   -0.0985   21.7124 H   0  0  0  0  0  0  0  0  0  0  0  0
    4.7188   -1.8408   22.6373 H   0  0  0  0  0  0  0  0  0  0  0  0
    5.7707    0.2852   24.4189 H   0  0  0  0  0  0  0  0  0  0  0  0
    5.0802   -1.3214   24.5589 H   0  0  0  0  0  0  0  0  0  0  0  0
    4.8995    0.2507   26.8292 H   0  0  0  0  0  0  0  0  0  0  0  0
    4.0713   -1.2606   26.4791 H   0  0  0  0  0  0  0  0  0  0  0  0
    3.0371    0.1134   28.3198 H   0  0  0  0  0  0  0  0  0  0  0  0
    1.9281   -0.4372   27.0865 H   0  0  0  0  0  0  0  0  0  0  0  0
    1.3236    1.6814   26.5438 H   0  0  0  0  0  0  0  0  0  0  0  0
    2.1494    2.1765   27.9994 H   0  0  0  0  0  0  0  0  0  0  0  0
    2.8930    3.4397   25.9459 H   0  0  0  0  0  0  0  0  0  0  0  0
    4.1935    2.6443   26.8177 H   0  0  0  0  0  0  0  0  0  0  0  0
    3.0437    1.9990   24.1163 H   0  0  0  0  0  0  0  0  0  0  0  0
    4.6978    2.1633   24.6523 H   0  0  0  0  0  0  0  0  0  0  0  0
    6.2614   -0.3689   18.0650 H   0  0  0  0  0  0  0  0  0  0  0  0
    7.6210   -1.0361   15.3978 H   0  0  0  0  0  0  0  0  0  0  0  0
    9.9712    2.6466   14.2042 H   0  0  0  0  0  0  0  0  0  0  0  0
    9.1880    2.1379   17.8693 H   0  0  0  0  0  0  0  0  0  0  0  0
  1  2  2  0
  2  3  1  0
  3  4  1  0
  4  5  1  0
  5  6  1  0
  6  7  1  0
  7  8  1  0
  8  9  1  0
  9 10  1  0
 10 11  1  0
  2 12  1  0
 12 13  1  0
 13 14  1  0
 14 15  2  0
 15 16  1  0
 16 17  1  0
 17 18  1  0
 17 19  1  0
 16 20  1  0
 11  6  1  0
 20 13  2  0
  3 21  1  0
  3 22  1  0
  4 23  1  0
  4 24  1  0
  5 25  1  0
  5 26  1  0
  7 27  1  0
  7 28  1  0
  8 29  1  0
  8 30  1  0
  9 31  1  0
  9 32  1  0
 10 33  1  0
 10 34  1  0
 11 35  1  0
 11 36  1  0
 12 37  1  0
 14 38  1  0
 17 39  1  0
 20 40  1  0
M  END
>  <Energy>  (1116) 
311.75331422347074

>  <compound_id>  (1116) 
8631

>  <target_id>  (1116) 
1

>  <reference_id>  (1116) 
44

>  <inspiration_ids>  (1116) 
[81, 44]

>  <energy_score>  (1116) 
234.49674576541815

>  <distance_score>  (1116) 
6.111657709620216

>  <path>  (1116) 
/opt/xchem-fragalysis-2/maxwin/BulkDock/SCRATCH/511016/C8631-P44/C8631-P44.minimised.mol

>  <scratch_subdir>  (1116) 
/opt/xchem-fragalysis-2/maxwin/BulkDock/SCRATCH/511016/C8631-P44

>  <fragmenstein_runtime>  (1116) 
10.559655666351318

>  <fragmenstein_outcome>  (1116) 
too moved

>  <fragmenstein_mode>  (1116) 
expansion

>  <fragmenstein_error>  (1116) 


$$$$
C8632-P81
     RDKit          3D

 43 44  0  0  0  0  0  0  0  0999 V2000
   10.3027    3.2421   15.5925 C   0  0  0  0  0  0  0  0  0  0  0  0
   10.4585    1.7341   15.4788 C   0  0  0  0  0  0  0  0  0  0  0  0
    9.4104    0.9575   16.1098 N   0  0  0  0  0  0  0  0  0  0  0  0
    8.6386    1.2664   17.1848 C   0  0  0  0  0  0  0  0  0  0  0  0
    8.0795    0.0589   17.7315 C   0  0  0  0  0  0  0  0  0  0  0  0
    7.1021    0.1400   19.1301 N   0  0  0  0  0  0  0  0  0  0  0  0
    7.0862   -0.6703   20.4046 C   0  0  0  0  0  0  0  0  0  0  0  0
    7.8427   -1.4642   20.6553 O   0  0  0  0  0  0  0  0  0  0  0  0
    5.6444   -0.6418   21.8375 C   0  0  0  0  0  0  0  0  0  0  0  0
    4.9962   -1.5773   23.4235 C   0  0  0  0  0  0  0  0  0  0  0  0
    4.5054   -1.3861   25.0654 C   0  0  0  0  0  0  0  0  0  0  0  0
    3.4442   -0.5892   25.7527 N   0  0  0  0  0  0  0  0  0  0  0  0
    3.0870   -1.2000   27.0485 C   0  0  0  0  0  0  0  0  0  0  0  0
    2.6229   -0.2299   28.1457 C   0  0  0  0  0  0  0  0  0  0  0  0
    1.8119    0.9253   27.5942 C   0  0  0  0  0  0  0  0  0  0  0  0
    2.6031    1.6666   26.5238 C   0  0  0  0  0  0  0  0  0  0  0  0
    3.7183    0.8282   25.8659 C   0  0  0  0  0  0  0  0  0  0  0  0
    8.0438   -0.5663   16.4045 C   0  0  0  0  0  0  0  0  0  0  0  0
    9.0297   -0.2006   15.5797 N   0  0  0  0  0  0  0  0  0  0  0  0
    9.3353    3.5728   15.2011 H   0  0  0  0  0  0  0  0  0  0  0  0
   11.0916    3.7460   15.0254 H   0  0  0  0  0  0  0  0  0  0  0  0
   10.3785    3.5724   16.6337 H   0  0  0  0  0  0  0  0  0  0  0  0
   11.4014    1.4135   15.9347 H   0  0  0  0  0  0  0  0  0  0  0  0
   10.4830    1.4527   14.4195 H   0  0  0  0  0  0  0  0  0  0  0  0
    8.6065    2.2736   17.5699 H   0  0  0  0  0  0  0  0  0  0  0  0
    6.3275    0.6820   19.1096 H   0  0  0  0  0  0  0  0  0  0  0  0
    4.9364    0.1726   21.7482 H   0  0  0  0  0  0  0  0  0  0  0  0
    5.4788   -1.6950   21.6007 H   0  0  0  0  0  0  0  0  0  0  0  0
    5.7619   -2.2868   23.5919 H   0  0  0  0  0  0  0  0  0  0  0  0
    4.1258   -2.1450   23.1589 H   0  0  0  0  0  0  0  0  0  0  0  0
    4.1126   -2.4064   25.2097 H   0  0  0  0  0  0  0  0  0  0  0  0
    5.3871   -1.4059   25.7127 H   0  0  0  0  0  0  0  0  0  0  0  0
    2.2903   -1.9298   26.8659 H   0  0  0  0  0  0  0  0  0  0  0  0
    3.9304   -1.7656   27.4667 H   0  0  0  0  0  0  0  0  0  0  0  0
    2.0378   -0.7765   28.8942 H   0  0  0  0  0  0  0  0  0  0  0  0
    3.5030    0.1705   28.6657 H   0  0  0  0  0  0  0  0  0  0  0  0
    1.5318    1.6158   28.3978 H   0  0  0  0  0  0  0  0  0  0  0  0
    0.8731    0.5449   27.1771 H   0  0  0  0  0  0  0  0  0  0  0  0
    3.0658    2.5577   26.9666 H   0  0  0  0  0  0  0  0  0  0  0  0
    1.9087    2.0417   25.7620 H   0  0  0  0  0  0  0  0  0  0  0  0
    3.8110    1.2178   24.8573 H   0  0  0  0  0  0  0  0  0  0  0  0
    4.6572    0.9935   26.4071 H   0  0  0  0  0  0  0  0  0  0  0  0
    7.3783   -1.3158   16.0003 H   0  0  0  0  0  0  0  0  0  0  0  0
  1  2  1  0
  2  3  1  0
  3  4  1  0
  4  5  2  0
  5  6  1  0
  6  7  1  0
  7  8  2  0
  7  9  1  0
  9 10  1  0
 10 11  1  0
 11 12  1  0
 12 13  1  0
 13 14  1  0
 14 15  1  0
 15 16  1  0
 16 17  1  0
  5 18  1  0
 18 19  2  0
 19  3  1  0
 17 12  1  0
  1 20  1  0
  1 21  1  0
  1 22  1  0
  2 23  1  0
  2 24  1  0
  4 25  1  0
  6 26  1  0
  9 27  1  0
  9 28  1  0
 10 29  1  0
 10 30  1  0
 11 31  1  0
 11 32  1  0
 13 33  1  0
 13 34  1  0
 14 35  1  0
 14 36  1  0
 15 37  1  0
 15 38  1  0
 16 39  1  0
 16 40  1  0
 17 41  1  0
 17 42  1  0
 18 43  1  0
M  END
>  <Energy>  (1117) 
312.49685838464706

>  <compound_id>  (1117) 
8632

>  <target_id>  (1117) 
1

>  <reference_id>  (1117) 
81

>  <inspiration_ids>  (1117) 
[81, 44]

>  <energy_score>  (1117) 
256.9670200397062

>  <distance_score>  (1117) 
5.8032997991187285

>  <path>  (1117) 
/opt/xchem-fragalysis-2/maxwin/BulkDock/SCRATCH/511016/C8632-P81/C8632-P81.minimised.mol

>  <scratch_subdir>  (1117) 
/opt/xchem-fragalysis-2/maxwin/BulkDock/SCRATCH/511016/C8632-P81

>  <fragmenstein_runtime>  (1117) 
10.970073938369751

>  <fragmenstein_outcome>  (1117) 
too moved

>  <fragmenstein_mode>  (1117) 
expansion

>  <fragmenstein_error>  (1117) 


$$$$
C8632-P44
     RDKit          3D

 43 44  0  0  0  0  0  0  0  0999 V2000
   -0.2172   -6.1328   12.4533 C   0  0  0  0  0  0  0  0  0  0  0  0
    0.8042   -5.0583   12.7791 C   0  0  0  0  0  0  0  0  0  0  0  0
    1.0660   -4.9661   14.2023 N   0  0  0  0  0  0  0  0  0  0  0  0
    0.4871   -4.0893   15.0790 C   0  0  0  0  0  0  0  0  0  0  0  0
    1.1063   -4.2950   16.2790 C   0  0  0  0  0  0  0  0  0  0  0  0
    1.1458   -3.5357   17.4128 N   0  0  0  0  0  0  0  0  0  0  0  0
    0.7166   -2.1457   17.6626 C   0  0  0  0  0  0  0  0  0  0  0  0
    0.1470   -1.3577   16.9488 O   0  0  0  0  0  0  0  0  0  0  0  0
    1.2685   -1.4949   19.3050 C   0  0  0  0  0  0  0  0  0  0  0  0
    1.2132   -3.0018   20.9072 C   0  0  0  0  0  0  0  0  0  0  0  0
    2.1673   -2.7893   22.6619 C   0  0  0  0  0  0  0  0  0  0  0  0
    3.6179   -2.3782   23.7875 N   0  0  0  0  0  0  0  0  0  0  0  0
    3.8024   -3.3906   25.1214 C   0  0  0  0  0  0  0  0  0  0  0  0
    5.1713   -3.3800   25.7738 C   0  0  0  0  0  0  0  0  0  0  0  0
    5.6431   -2.0042   26.1846 C   0  0  0  0  0  0  0  0  0  0  0  0
    4.6181   -0.9540   25.8583 C   0  0  0  0  0  0  0  0  0  0  0  0
    4.0552   -1.0425   24.4184 C   0  0  0  0  0  0  0  0  0  0  0  0
    1.9679   -5.3988   16.0479 C   0  0  0  0  0  0  0  0  0  0  0  0
    1.9633   -5.7938   14.7739 N   0  0  0  0  0  0  0  0  0  0  0  0
   -0.3961   -6.1726   11.3744 H   0  0  0  0  0  0  0  0  0  0  0  0
   -1.1718   -5.9331   12.9516 H   0  0  0  0  0  0  0  0  0  0  0  0
    0.1289   -7.1194   12.7788 H   0  0  0  0  0  0  0  0  0  0  0  0
    0.4510   -4.0781   12.4407 H   0  0  0  0  0  0  0  0  0  0  0  0
    1.7576   -5.2617   12.2792 H   0  0  0  0  0  0  0  0  0  0  0  0
   -0.2331   -3.3508   14.7547 H   0  0  0  0  0  0  0  0  0  0  0  0
    1.5192   -3.9227   18.2588 H   0  0  0  0  0  0  0  0  0  0  0  0
    2.1901   -1.1421   18.7747 H   0  0  0  0  0  0  0  0  0  0  0  0
    0.9193   -0.5254   19.3867 H   0  0  0  0  0  0  0  0  0  0  0  0
    0.3295   -3.1319   21.6147 H   0  0  0  0  0  0  0  0  0  0  0  0
    1.0465   -4.0427   20.5060 H   0  0  0  0  0  0  0  0  0  0  0  0
    1.5655   -3.5009   23.1996 H   0  0  0  0  0  0  0  0  0  0  0  0
    2.8690   -3.3133   22.1060 H   0  0  0  0  0  0  0  0  0  0  0  0
    3.1408   -3.1534   25.9646 H   0  0  0  0  0  0  0  0  0  0  0  0
    3.5752   -4.4281   24.9272 H   0  0  0  0  0  0  0  0  0  0  0  0
    5.1334   -4.0130   26.6710 H   0  0  0  0  0  0  0  0  0  0  0  0
    5.8669   -3.8879   25.1172 H   0  0  0  0  0  0  0  0  0  0  0  0
    6.5990   -1.7705   25.7118 H   0  0  0  0  0  0  0  0  0  0  0  0
    5.8475   -1.9890   27.2623 H   0  0  0  0  0  0  0  0  0  0  0  0
    5.0543    0.0415   26.0100 H   0  0  0  0  0  0  0  0  0  0  0  0
    3.7921   -1.0263   26.5793 H   0  0  0  0  0  0  0  0  0  0  0  0
    3.2144   -0.3664   24.5807 H   0  0  0  0  0  0  0  0  0  0  0  0
    4.8088   -0.6034   23.7727 H   0  0  0  0  0  0  0  0  0  0  0  0
    2.6520   -5.8751   16.7377 H   0  0  0  0  0  0  0  0  0  0  0  0
  1  2  1  0
  2  3  1  0
  3  4  1  0
  4  5  2  0
  5  6  1  0
  6  7  1  0
  7  8  2  0
  7  9  1  0
  9 10  1  0
 10 11  1  0
 11 12  1  0
 12 13  1  0
 13 14  1  0
 14 15  1  0
 15 16  1  0
 16 17  1  0
  5 18  1  0
 18 19  2  0
 19  3  1  0
 17 12  1  0
  1 20  1  0
  1 21  1  0
  1 22  1  0
  2 23  1  0
  2 24  1  0
  4 25  1  0
  6 26  1  0
  9 27  1  0
  9 28  1  0
 10 29  1  0
 10 30  1  0
 11 31  1  0
 11 32  1  0
 13 33  1  0
 13 34  1  0
 14 35  1  0
 14 36  1  0
 15 37  1  0
 15 38  1  0
 16 39  1  0
 16 40  1  0
 17 41  1  0
 17 42  1  0
 18 43  1  0
M  END
>  <Energy>  (1118) 
392.19353327098588

>  <compound_id>  (1118) 
8632

>  <target_id>  (1118) 
1

>  <reference_id>  (1118) 
44

>  <inspiration_ids>  (1118) 
[81, 44]

>  <energy_score>  (1118) 
336.66369492604747

>  <distance_score>  (1118) 
9.87352119230705

>  <path>  (1118) 
/opt/xchem-fragalysis-2/maxwin/BulkDock/SCRATCH/511016/C8632-P44/C8632-P44.minimised.mol

>  <scratch_subdir>  (1118) 
/opt/xchem-fragalysis-2/maxwin/BulkDock/SCRATCH/511016/C8632-P44

>  <fragmenstein_runtime>  (1118) 
12.332511901855469

>  <fragmenstein_outcome>  (1118) 
too moved

>  <fragmenstein_mode>  (1118) 
expansion

>  <fragmenstein_error>  (1118) 


$$$$
C8634-P81
     RDKit          3D

 51 53  0  0  0  0  0  0  0  0999 V2000
    5.9748   -1.1299   18.1069 O   0  0  0  0  0  0  0  0  0  0  0  0
    6.8787   -0.5399   18.7145 C   0  0  0  0  0  0  0  0  0  0  0  0
    6.9106   -0.1445   20.4059 N   0  0  0  0  0  0  0  0  0  0  0  0
    5.5189   -0.3576   21.8364 C   0  0  0  0  0  0  0  0  0  0  0  0
    4.9646   -1.5057   23.3556 C   0  0  0  0  0  0  0  0  0  0  0  0
    5.7141   -2.1901   24.3128 O   0  0  0  0  0  0  0  0  0  0  0  0
    4.1669    1.0397   22.1153 C   0  0  0  0  0  0  0  0  0  0  0  0
    3.2667    2.3941   22.7766 N   0  0  0  0  0  0  0  0  0  0  0  0
    2.7162    2.3390   24.1688 C   0  0  0  0  0  0  0  0  0  0  0  0
    1.3905    3.0892   24.4426 C   0  0  0  0  0  0  0  0  0  0  0  0
    1.4345    4.4819   23.8424 C   0  0  0  0  0  0  0  0  0  0  0  0
    1.9217    4.4571   22.3967 C   0  0  0  0  0  0  0  0  0  0  0  0
    2.2941    3.0592   21.8742 C   0  0  0  0  0  0  0  0  0  0  0  0
    8.1292    0.0049   17.5402 C   0  0  0  0  0  0  0  0  0  0  0  0
    8.3705   -0.6566   16.2685 C   0  0  0  0  0  0  0  0  0  0  0  0
    9.4336   -0.0296   15.6182 C   0  0  0  0  0  0  0  0  0  0  0  0
    9.6934    1.1147   16.2227 N   0  0  0  0  0  0  0  0  0  0  0  0
    8.6033    1.2939   17.0283 N   0  0  0  0  0  0  0  0  0  0  0  0
    8.2074    2.6766   17.2444 C   0  0  0  0  0  0  0  0  0  0  0  0
    9.3631    3.7085   17.1403 C   0  0  0  0  0  0  0  0  0  0  0  0
    8.6904    5.0754   17.2292 C   0  0  0  0  0  0  0  0  0  0  0  0
    7.2627    4.8395   16.7527 C   0  0  0  0  0  0  0  0  0  0  0  0
    7.2394    3.3815   16.2945 C   0  0  0  0  0  0  0  0  0  0  0  0
    7.7209    0.4016   20.5987 H   0  0  0  0  0  0  0  0  0  0  0  0
    5.4367   -1.4123   21.6266 H   0  0  0  0  0  0  0  0  0  0  0  0
    4.4891   -0.9021   24.1516 H   0  0  0  0  0  0  0  0  0  0  0  0
    4.1319   -2.1538   23.1596 H   0  0  0  0  0  0  0  0  0  0  0  0
    5.1808   -2.4899   25.0773 H   0  0  0  0  0  0  0  0  0  0  0  0
    3.2838    0.8052   21.5949 H   0  0  0  0  0  0  0  0  0  0  0  0
    4.3025    1.0086   23.1666 H   0  0  0  0  0  0  0  0  0  0  0  0
    3.3796    2.8785   24.8361 H   0  0  0  0  0  0  0  0  0  0  0  0
    2.6800    1.3339   24.5764 H   0  0  0  0  0  0  0  0  0  0  0  0
    1.2340    3.1632   25.5258 H   0  0  0  0  0  0  0  0  0  0  0  0
    0.5142    2.5707   24.0516 H   0  0  0  0  0  0  0  0  0  0  0  0
    0.4440    4.9476   23.9017 H   0  0  0  0  0  0  0  0  0  0  0  0
    2.1061    5.1153   24.4354 H   0  0  0  0  0  0  0  0  0  0  0  0
    2.7902    5.1216   22.3010 H   0  0  0  0  0  0  0  0  0  0  0  0
    1.1457    4.8814   21.7477 H   0  0  0  0  0  0  0  0  0  0  0  0
    1.3810    2.4830   21.7351 H   0  0  0  0  0  0  0  0  0  0  0  0
    2.6410    3.1965   20.8493 H   0  0  0  0  0  0  0  0  0  0  0  0
    7.8733   -1.5339   15.8728 H   0  0  0  0  0  0  0  0  0  0  0  0
    9.9788   -0.3288   14.7306 H   0  0  0  0  0  0  0  0  0  0  0  0
    7.6882    2.6824   18.1846 H   0  0  0  0  0  0  0  0  0  0  0  0
   10.1675    3.5928   17.8617 H   0  0  0  0  0  0  0  0  0  0  0  0
    9.8498    3.6383   16.1566 H   0  0  0  0  0  0  0  0  0  0  0  0
    8.6911    5.4538   18.2563 H   0  0  0  0  0  0  0  0  0  0  0  0
    9.2101    5.8104   16.6060 H   0  0  0  0  0  0  0  0  0  0  0  0
    6.9769    5.5225   15.9470 H   0  0  0  0  0  0  0  0  0  0  0  0
    6.5622    4.9883   17.5828 H   0  0  0  0  0  0  0  0  0  0  0  0
    7.6332    3.3524   15.2831 H   0  0  0  0  0  0  0  0  0  0  0  0
    6.2228    2.9989   16.3156 H   0  0  0  0  0  0  0  0  0  0  0  0
  1  2  2  0
  2  3  1  0
  3  4  1  0
  4  5  1  0
  5  6  1  0
  4  7  1  0
  7  8  1  0
  8  9  1  0
  9 10  1  0
 10 11  1  0
 11 12  1  0
 12 13  1  0
  2 14  1  0
 14 15  2  0
 15 16  1  0
 16 17  2  0
 17 18  1  0
 18 19  1  0
 19 20  1  0
 20 21  1  0
 21 22  1  0
 22 23  1  0
 13  8  1  0
 18 14  1  0
 23 19  1  0
  3 24  1  0
  4 25  1  0
  5 26  1  0
  5 27  1  0
  6 28  1  0
  7 29  1  0
  7 30  1  0
  9 31  1  0
  9 32  1  0
 10 33  1  0
 10 34  1  0
 11 35  1  0
 11 36  1  0
 12 37  1  0
 12 38  1  0
 13 39  1  0
 13 40  1  0
 15 41  1  0
 16 42  1  0
 19 43  1  0
 20 44  1  0
 20 45  1  0
 21 46  1  0
 21 47  1  0
 22 48  1  0
 22 49  1  0
 23 50  1  0
 23 51  1  0
M  END
>  <Energy>  (1119) 
497.95709920080401

>  <compound_id>  (1119) 
8634

>  <target_id>  (1119) 
1

>  <reference_id>  (1119) 
81

>  <inspiration_ids>  (1119) 
[81, 44]

>  <energy_score>  (1119) 
433.11318779463784

>  <distance_score>  (1119) 
6.393803634431192

>  <path>  (1119) 
/opt/xchem-fragalysis-2/maxwin/BulkDock/SCRATCH/511016/C8634-P81/C8634-P81.minimised.mol

>  <scratch_subdir>  (1119) 
/opt/xchem-fragalysis-2/maxwin/BulkDock/SCRATCH/511016/C8634-P81

>  <fragmenstein_runtime>  (1119) 
13.420499324798584

>  <fragmenstein_outcome>  (1119) 
too moved

>  <fragmenstein_mode>  (1119) 
expansion

>  <fragmenstein_error>  (1119) 


$$$$
C8634-P44
     RDKit          3D

 51 53  0  0  0  0  0  0  0  0999 V2000
    8.2734   -0.6813   27.0909 O   0  0  0  0  0  0  0  0  0  0  0  0
    7.9479    0.2348   26.4244 C   0  0  0  0  0  0  0  0  0  0  0  0
    6.5077    0.8981   26.2121 N   0  0  0  0  0  0  0  0  0  0  0  0
    5.0870    0.4567   26.7489 C   0  0  0  0  0  0  0  0  0  0  0  0
    5.2135   -0.9124   27.4538 C   0  0  0  0  0  0  0  0  0  0  0  0
    3.9526   -1.5121   27.7285 O   0  0  0  0  0  0  0  0  0  0  0  0
    4.0871    1.4605   27.6224 C   0  0  0  0  0  0  0  0  0  0  0  0
    2.6320    1.7444   27.2626 N   0  0  0  0  0  0  0  0  0  0  0  0
    1.6931    0.6315   27.5361 C   0  0  0  0  0  0  0  0  0  0  0  0
    0.1879    1.0258   27.5808 C   0  0  0  0  0  0  0  0  0  0  0  0
   -0.1129    2.3605   26.9154 C   0  0  0  0  0  0  0  0  0  0  0  0
    0.7865    3.4537   27.4764 C   0  0  0  0  0  0  0  0  0  0  0  0
    2.1381    2.9317   27.9996 C   0  0  0  0  0  0  0  0  0  0  0  0
    9.1175    0.7852   25.5532 C   0  0  0  0  0  0  0  0  0  0  0  0
   10.1907    0.0526   24.9775 C   0  0  0  0  0  0  0  0  0  0  0  0
   10.8899    0.8972   24.0849 C   0  0  0  0  0  0  0  0  0  0  0  0
   10.3745    2.1150   24.1064 N   0  0  0  0  0  0  0  0  0  0  0  0
    9.4798    2.0625   25.1469 N   0  0  0  0  0  0  0  0  0  0  0  0
    9.0277    3.2950   25.7789 C   0  0  0  0  0  0  0  0  0  0  0  0
    9.7950    4.5648   25.3885 C   0  0  0  0  0  0  0  0  0  0  0  0
    9.3677    5.5599   26.4535 C   0  0  0  0  0  0  0  0  0  0  0  0
    9.3485    4.7431   27.7376 C   0  0  0  0  0  0  0  0  0  0  0  0
    9.1445    3.2875   27.3127 C   0  0  0  0  0  0  0  0  0  0  0  0
    6.5954    1.7218   25.6358 H   0  0  0  0  0  0  0  0  0  0  0  0
    4.5370    0.2975   25.8115 H   0  0  0  0  0  0  0  0  0  0  0  0
    5.7461   -0.7990   28.4036 H   0  0  0  0  0  0  0  0  0  0  0  0
    5.7804   -1.6170   26.8360 H   0  0  0  0  0  0  0  0  0  0  0  0
    3.5391   -1.7003   26.8689 H   0  0  0  0  0  0  0  0  0  0  0  0
    4.6040    2.4268   27.5463 H   0  0  0  0  0  0  0  0  0  0  0  0
    4.1467    1.1705   28.6795 H   0  0  0  0  0  0  0  0  0  0  0  0
    1.8416   -0.1302   26.7701 H   0  0  0  0  0  0  0  0  0  0  0  0
    1.9355    0.1583   28.4964 H   0  0  0  0  0  0  0  0  0  0  0  0
   -0.1204    1.0887   28.6329 H   0  0  0  0  0  0  0  0  0  0  0  0
   -0.4157    0.2320   27.1278 H   0  0  0  0  0  0  0  0  0  0  0  0
    0.0574    2.2837   25.8374 H   0  0  0  0  0  0  0  0  0  0  0  0
   -1.1668    2.6298   27.0467 H   0  0  0  0  0  0  0  0  0  0  0  0
    0.2727    3.9701   28.2965 H   0  0  0  0  0  0  0  0  0  0  0  0
    0.9557    4.2037   26.6940 H   0  0  0  0  0  0  0  0  0  0  0  0
    2.8569    3.7563   27.9154 H   0  0  0  0  0  0  0  0  0  0  0  0
    2.0572    2.7017   29.0708 H   0  0  0  0  0  0  0  0  0  0  0  0
   10.3979   -0.9917   25.1766 H   0  0  0  0  0  0  0  0  0  0  0  0
   11.7665    0.7107   23.4824 H   0  0  0  0  0  0  0  0  0  0  0  0
    7.9747    3.4185   25.4969 H   0  0  0  0  0  0  0  0  0  0  0  0
   10.8799    4.4084   25.4363 H   0  0  0  0  0  0  0  0  0  0  0  0
    9.5460    4.9151   24.3821 H   0  0  0  0  0  0  0  0  0  0  0  0
   10.0418    6.4189   26.5177 H   0  0  0  0  0  0  0  0  0  0  0  0
    8.3610    5.9355   26.2345 H   0  0  0  0  0  0  0  0  0  0  0  0
    8.5598    5.0846   28.4156 H   0  0  0  0  0  0  0  0  0  0  0  0
   10.3027    4.8432   28.2677 H   0  0  0  0  0  0  0  0  0  0  0  0
    8.2458    2.8679   27.7774 H   0  0  0  0  0  0  0  0  0  0  0  0
    9.9960    2.6848   27.6519 H   0  0  0  0  0  0  0  0  0  0  0  0
  1  2  2  0
  2  3  1  0
  3  4  1  0
  4  5  1  0
  5  6  1  0
  4  7  1  0
  7  8  1  0
  8  9  1  0
  9 10  1  0
 10 11  1  0
 11 12  1  0
 12 13  1  0
  2 14  1  0
 14 15  2  0
 15 16  1  0
 16 17  2  0
 17 18  1  0
 18 19  1  0
 19 20  1  0
 20 21  1  0
 21 22  1  0
 22 23  1  0
 13  8  1  0
 18 14  1  0
 23 19  1  0
  3 24  1  0
  4 25  1  0
  5 26  1  0
  5 27  1  0
  6 28  1  0
  7 29  1  0
  7 30  1  0
  9 31  1  0
  9 32  1  0
 10 33  1  0
 10 34  1  0
 11 35  1  0
 11 36  1  0
 12 37  1  0
 12 38  1  0
 13 39  1  0
 13 40  1  0
 15 41  1  0
 16 42  1  0
 19 43  1  0
 20 44  1  0
 20 45  1  0
 21 46  1  0
 21 47  1  0
 22 48  1  0
 22 49  1  0
 23 50  1  0
 23 51  1  0
M  END
>  <Energy>  (1120) 
86.850367543167934

>  <compound_id>  (1120) 
8634

>  <target_id>  (1120) 
1

>  <reference_id>  (1120) 
44

>  <inspiration_ids>  (1120) 
[81, 44]

>  <energy_score>  (1120) 
35.85000286856575

>  <distance_score>  (1120) 
7.174037953756248

>  <path>  (1120) 
/opt/xchem-fragalysis-2/maxwin/BulkDock/SCRATCH/511016/C8634-P44/C8634-P44.minimised.mol

>  <scratch_subdir>  (1120) 
/opt/xchem-fragalysis-2/maxwin/BulkDock/SCRATCH/511016/C8634-P44

>  <fragmenstein_runtime>  (1120) 
12.568001985549927

>  <fragmenstein_outcome>  (1120) 
too moved

>  <fragmenstein_mode>  (1120) 
expansion

>  <fragmenstein_error>  (1120) 


$$$$
C8635-P81
     RDKit          3D

 48 50  0  0  0  0  0  0  0  0999 V2000
    9.8096    5.7644   26.2225 C   0  0  0  0  0  0  0  0  0  0  0  0
    8.9964    4.6399   25.5792 C   0  0  0  0  0  0  0  0  0  0  0  0
    9.8262    3.7690   24.7777 O   0  0  0  0  0  0  0  0  0  0  0  0
   10.5214    4.3009   23.7303 C   0  0  0  0  0  0  0  0  0  0  0  0
   10.4351    5.4682   23.3789 O   0  0  0  0  0  0  0  0  0  0  0  0
   11.4223    3.3060   23.1799 C   0  0  0  0  0  0  0  0  0  0  0  0
   11.3891    1.9233   23.3180 C   0  0  0  0  0  0  0  0  0  0  0  0
   12.5106    1.4342   22.6370 C   0  0  0  0  0  0  0  0  0  0  0  0
   13.2121    2.4076   22.0665 N   0  0  0  0  0  0  0  0  0  0  0  0
   12.5343    3.5421   22.3861 N   0  0  0  0  0  0  0  0  0  0  0  0
   13.1426    4.7953   21.9769 C   0  0  0  0  0  0  0  0  0  0  0  0
   13.5159    5.7641   23.1133 C   0  0  0  0  0  0  0  0  0  0  0  0
   13.1107    7.1551   22.6260 C   0  0  0  0  0  0  0  0  0  0  0  0
   12.9451    7.0200   21.1199 C   0  0  0  0  0  0  0  0  0  0  0  0
   12.3731    5.6214   20.9439 C   0  0  0  0  0  0  0  0  0  0  0  0
    7.6646    5.1367   24.9138 C   0  0  0  0  0  0  0  0  0  0  0  0
    7.3866    4.7897   23.7939 O   0  0  0  0  0  0  0  0  0  0  0  0
    6.9068    5.9133   25.8729 N   0  0  0  0  0  0  0  0  0  0  0  0
    5.5974    6.6209   25.7353 C   0  0  0  0  0  0  0  0  0  0  0  0
    4.3509    5.9531   25.1140 C   0  0  0  0  0  0  0  0  0  0  0  0
    3.6400    5.1642   26.1901 C   0  0  0  0  0  0  0  0  0  0  0  0
    4.6148    5.0642   27.3404 C   0  0  0  0  0  0  0  0  0  0  0  0
    6.0575    4.9689   26.7686 C   0  0  0  0  0  0  0  0  0  0  0  0
    9.2977    6.1670   27.1028 H   0  0  0  0  0  0  0  0  0  0  0  0
   10.7972    5.4072   26.5319 H   0  0  0  0  0  0  0  0  0  0  0  0
    9.9575    6.6010   25.5323 H   0  0  0  0  0  0  0  0  0  0  0  0
    8.6750    3.9827   26.3974 H   0  0  0  0  0  0  0  0  0  0  0  0
   10.6610    1.3513   23.8747 H   0  0  0  0  0  0  0  0  0  0  0  0
   12.8547    0.4127   22.5422 H   0  0  0  0  0  0  0  0  0  0  0  0
   14.0937    4.5159   21.4972 H   0  0  0  0  0  0  0  0  0  0  0  0
   14.5995    5.7288   23.2805 H   0  0  0  0  0  0  0  0  0  0  0  0
   13.0470    5.5324   24.0742 H   0  0  0  0  0  0  0  0  0  0  0  0
   13.8505    7.9159   22.8924 H   0  0  0  0  0  0  0  0  0  0  0  0
   12.1581    7.4481   23.0815 H   0  0  0  0  0  0  0  0  0  0  0  0
   12.2922    7.7919   20.7026 H   0  0  0  0  0  0  0  0  0  0  0  0
   13.9211    7.0938   20.6257 H   0  0  0  0  0  0  0  0  0  0  0  0
   11.2952    5.6270   21.1259 H   0  0  0  0  0  0  0  0  0  0  0  0
   12.5290    5.2488   19.9261 H   0  0  0  0  0  0  0  0  0  0  0  0
    5.8645    7.3782   24.9806 H   0  0  0  0  0  0  0  0  0  0  0  0
    5.3983    7.2528   26.6162 H   0  0  0  0  0  0  0  0  0  0  0  0
    4.6343    5.3120   24.2733 H   0  0  0  0  0  0  0  0  0  0  0  0
    3.6738    6.7184   24.7174 H   0  0  0  0  0  0  0  0  0  0  0  0
    3.3611    4.1741   25.8142 H   0  0  0  0  0  0  0  0  0  0  0  0
    2.7182    5.6599   26.5129 H   0  0  0  0  0  0  0  0  0  0  0  0
    4.5193    5.9218   28.0181 H   0  0  0  0  0  0  0  0  0  0  0  0
    4.3931    4.1756   27.9431 H   0  0  0  0  0  0  0  0  0  0  0  0
    6.1451    3.9695   26.3267 H   0  0  0  0  0  0  0  0  0  0  0  0
    6.6983    4.8968   27.6619 H   0  0  0  0  0  0  0  0  0  0  0  0
  1  2  1  0
  2  3  1  0
  3  4  1  0
  4  5  2  0
  4  6  1  0
  6  7  2  0
  7  8  1  0
  8  9  2  0
  9 10  1  0
 10 11  1  0
 11 12  1  0
 12 13  1  0
 13 14  1  0
 14 15  1  0
  2 16  1  0
 16 17  2  0
 16 18  1  0
 18 19  1  0
 19 20  1  0
 20 21  1  0
 21 22  1  0
 22 23  1  0
 10  6  1  0
 15 11  1  0
 23 18  1  0
  1 24  1  0
  1 25  1  0
  1 26  1  0
  2 27  1  0
  7 28  1  0
  8 29  1  0
 11 30  1  0
 12 31  1  0
 12 32  1  0
 13 33  1  0
 13 34  1  0
 14 35  1  0
 14 36  1  0
 15 37  1  0
 15 38  1  0
 19 39  1  0
 19 40  1  0
 20 41  1  0
 20 42  1  0
 21 43  1  0
 21 44  1  0
 22 45  1  0
 22 46  1  0
 23 47  1  0
 23 48  1  0
M  END
>  <Energy>  (1121) 
96.548874743457006

>  <compound_id>  (1121) 
8635

>  <target_id>  (1121) 
1

>  <reference_id>  (1121) 
81

>  <inspiration_ids>  (1121) 
[81, 44]

>  <energy_score>  (1121) 
36.923716434629

>  <distance_score>  (1121) 
8.967600367589286

>  <path>  (1121) 
/opt/xchem-fragalysis-2/maxwin/BulkDock/SCRATCH/511016/C8635-P81/C8635-P81.minimised.mol

>  <scratch_subdir>  (1121) 
/opt/xchem-fragalysis-2/maxwin/BulkDock/SCRATCH/511016/C8635-P81

>  <fragmenstein_runtime>  (1121) 
21.308405876159668

>  <fragmenstein_outcome>  (1121) 
too moved

>  <fragmenstein_mode>  (1121) 
expansion

>  <fragmenstein_error>  (1121) 


$$$$
C8635-P44
     RDKit          3D

 48 50  0  0  0  0  0  0  0  0999 V2000
    9.0282    5.7256   26.6656 C   0  0  0  0  0  0  0  0  0  0  0  0
    8.5718    4.8220   25.5288 C   0  0  0  0  0  0  0  0  0  0  0  0
    9.5776    4.8121   24.4814 O   0  0  0  0  0  0  0  0  0  0  0  0
   10.5915    3.9059   24.5829 C   0  0  0  0  0  0  0  0  0  0  0  0
   10.8140    3.2446   25.5882 O   0  0  0  0  0  0  0  0  0  0  0  0
   11.2996    3.7948   23.3202 C   0  0  0  0  0  0  0  0  0  0  0  0
   10.9710    4.3073   22.0726 C   0  0  0  0  0  0  0  0  0  0  0  0
   11.9606    3.8547   21.1924 C   0  0  0  0  0  0  0  0  0  0  0  0
   12.8620    3.0892   21.8019 N   0  0  0  0  0  0  0  0  0  0  0  0
   12.4770    3.0983   23.1024 N   0  0  0  0  0  0  0  0  0  0  0  0
   13.3454    2.5133   24.1202 C   0  0  0  0  0  0  0  0  0  0  0  0
   14.8485    2.6145   23.8239 C   0  0  0  0  0  0  0  0  0  0  0  0
   15.2445    1.2986   23.1543 C   0  0  0  0  0  0  0  0  0  0  0  0
   14.0436    0.3670   23.2795 C   0  0  0  0  0  0  0  0  0  0  0  0
   13.1220    1.0157   24.3038 C   0  0  0  0  0  0  0  0  0  0  0  0
    7.2390    5.3698   24.9192 C   0  0  0  0  0  0  0  0  0  0  0  0
    7.2839    5.9571   23.8676 O   0  0  0  0  0  0  0  0  0  0  0  0
    6.1270    5.1069   25.7962 N   0  0  0  0  0  0  0  0  0  0  0  0
    4.6905    5.5780   25.7351 C   0  0  0  0  0  0  0  0  0  0  0  0
    3.7547    5.2331   26.9010 C   0  0  0  0  0  0  0  0  0  0  0  0
    3.3951    3.7707   26.8223 C   0  0  0  0  0  0  0  0  0  0  0  0
    4.6846    3.0392   26.5343 C   0  0  0  0  0  0  0  0  0  0  0  0
    5.4754    3.7720   25.4326 C   0  0  0  0  0  0  0  0  0  0  0  0
    9.1898    6.7481   26.3062 H   0  0  0  0  0  0  0  0  0  0  0  0
    9.9801    5.3823   27.0828 H   0  0  0  0  0  0  0  0  0  0  0  0
    8.2893    5.7617   27.4720 H   0  0  0  0  0  0  0  0  0  0  0  0
    8.4008    3.7996   25.8839 H   0  0  0  0  0  0  0  0  0  0  0  0
   10.1204    4.9334   21.8398 H   0  0  0  0  0  0  0  0  0  0  0  0
   12.0636    4.0676   20.1391 H   0  0  0  0  0  0  0  0  0  0  0  0
   13.1478    3.0575   25.0485 H   0  0  0  0  0  0  0  0  0  0  0  0
   15.1218    3.4846   23.2181 H   0  0  0  0  0  0  0  0  0  0  0  0
   15.3965    2.7006   24.7711 H   0  0  0  0  0  0  0  0  0  0  0  0
   16.1252    0.8718   23.6467 H   0  0  0  0  0  0  0  0  0  0  0  0
   15.5042    1.4514   22.1011 H   0  0  0  0  0  0  0  0  0  0  0  0
   14.3365   -0.6449   23.5756 H   0  0  0  0  0  0  0  0  0  0  0  0
   13.5419    0.2902   22.3100 H   0  0  0  0  0  0  0  0  0  0  0  0
   12.0791    0.7118   24.1760 H   0  0  0  0  0  0  0  0  0  0  0  0
   13.4374    0.7181   25.3115 H   0  0  0  0  0  0  0  0  0  0  0  0
    4.8302    6.6681   25.8157 H   0  0  0  0  0  0  0  0  0  0  0  0
    4.2238    5.5121   24.7369 H   0  0  0  0  0  0  0  0  0  0  0  0
    2.8483    5.8465   26.8573 H   0  0  0  0  0  0  0  0  0  0  0  0
    4.2552    5.4511   27.8523 H   0  0  0  0  0  0  0  0  0  0  0  0
    2.9294    3.4186   27.7479 H   0  0  0  0  0  0  0  0  0  0  0  0
    2.6818    3.6037   26.0063 H   0  0  0  0  0  0  0  0  0  0  0  0
    4.4692    2.0113   26.2219 H   0  0  0  0  0  0  0  0  0  0  0  0
    5.2964    2.9835   27.4432 H   0  0  0  0  0  0  0  0  0  0  0  0
    6.3369    3.1102   25.2625 H   0  0  0  0  0  0  0  0  0  0  0  0
    4.9917    3.7547   24.4404 H   0  0  0  0  0  0  0  0  0  0  0  0
  1  2  1  0
  2  3  1  0
  3  4  1  0
  4  5  2  0
  4  6  1  0
  6  7  2  0
  7  8  1  0
  8  9  2  0
  9 10  1  0
 10 11  1  0
 11 12  1  0
 12 13  1  0
 13 14  1  0
 14 15  1  0
  2 16  1  0
 16 17  2  0
 16 18  1  0
 18 19  1  0
 19 20  1  0
 20 21  1  0
 21 22  1  0
 22 23  1  0
 10  6  1  0
 15 11  1  0
 23 18  1  0
  1 24  1  0
  1 25  1  0
  1 26  1  0
  2 27  1  0
  7 28  1  0
  8 29  1  0
 11 30  1  0
 12 31  1  0
 12 32  1  0
 13 33  1  0
 13 34  1  0
 14 35  1  0
 14 36  1  0
 15 37  1  0
 15 38  1  0
 19 39  1  0
 19 40  1  0
 20 41  1  0
 20 42  1  0
 21 43  1  0
 21 44  1  0
 22 45  1  0
 22 46  1  0
 23 47  1  0
 23 48  1  0
M  END
>  <Energy>  (1122) 
73.278182201953129

>  <compound_id>  (1122) 
8635

>  <target_id>  (1122) 
1

>  <reference_id>  (1122) 
44

>  <inspiration_ids>  (1122) 
[81, 44]

>  <energy_score>  (1122) 
13.653023893126317

>  <distance_score>  (1122) 
8.805993439975103

>  <path>  (1122) 
/opt/xchem-fragalysis-2/maxwin/BulkDock/SCRATCH/511016/C8635-P44/C8635-P44.minimised.mol

>  <scratch_subdir>  (1122) 
/opt/xchem-fragalysis-2/maxwin/BulkDock/SCRATCH/511016/C8635-P44

>  <fragmenstein_runtime>  (1122) 
20.053558111190796

>  <fragmenstein_outcome>  (1122) 
too moved

>  <fragmenstein_mode>  (1122) 
expansion

>  <fragmenstein_error>  (1122) 


$$$$
C8637-P81
     RDKit          3D

 51 53  0  0  0  0  0  0  0  0999 V2000
    5.8435   -2.6308   21.1343 C   0  0  0  0  0  0  0  0  0  0  0  0
    5.7130   -0.9181   21.6575 N   0  0  0  0  0  0  0  0  0  0  0  0
    5.1068   -1.5592   23.3885 C   0  0  0  0  0  0  0  0  0  0  0  0
    4.5124   -1.2449   25.0072 C   0  0  0  0  0  0  0  0  0  0  0  0
    3.4292   -0.4720   25.7032 N   0  0  0  0  0  0  0  0  0  0  0  0
    3.0972   -1.0774   27.0091 C   0  0  0  0  0  0  0  0  0  0  0  0
    2.6321   -0.1062   28.1047 C   0  0  0  0  0  0  0  0  0  0  0  0
    1.7743    1.0165   27.5575 C   0  0  0  0  0  0  0  0  0  0  0  0
    2.5169    1.7653   26.4585 C   0  0  0  0  0  0  0  0  0  0  0  0
    3.6498    0.9560   25.7933 C   0  0  0  0  0  0  0  0  0  0  0  0
    7.1825   -0.1938   20.0204 S   0  0  0  0  0  0  0  0  0  0  0  0
    7.5740    1.1110   20.5257 O   0  0  0  0  0  0  0  0  0  0  0  0
    8.1703   -1.1787   19.9831 O   0  0  0  0  0  0  0  0  0  0  0  0
    7.8533    0.1203   17.9247 C   0  0  0  0  0  0  0  0  0  0  0  0
    8.2213    1.5656   17.4703 C   0  0  0  0  0  0  0  0  0  0  0  0
    8.9639    1.6660   16.3726 N   0  0  0  0  0  0  0  0  0  0  0  0
    9.0836    0.4008   15.9854 N   0  0  0  0  0  0  0  0  0  0  0  0
    9.8963    0.0551   14.8233 C   0  0  0  0  0  0  0  0  0  0  0  0
   10.9143   -1.0591   15.1030 C   0  0  0  0  0  0  0  0  0  0  0  0
   12.1862   -0.3607   15.5806 C   0  0  0  0  0  0  0  0  0  0  0  0
   12.0472    1.1040   15.1796 C   0  0  0  0  0  0  0  0  0  0  0  0
   10.8118    1.1675   14.2903 C   0  0  0  0  0  0  0  0  0  0  0  0
    8.2376   -0.4654   16.6774 C   0  0  0  0  0  0  0  0  0  0  0  0
    6.8401   -3.0296   21.1601 H   0  0  0  0  0  0  0  0  0  0  0  0
    5.2755   -3.0964   20.3288 H   0  0  0  0  0  0  0  0  0  0  0  0
    5.4850   -2.9708   22.0262 H   0  0  0  0  0  0  0  0  0  0  0  0
    5.8092   -2.2942   23.6858 H   0  0  0  0  0  0  0  0  0  0  0  0
    4.2114   -2.0957   23.1394 H   0  0  0  0  0  0  0  0  0  0  0  0
    4.1038   -2.2614   25.1561 H   0  0  0  0  0  0  0  0  0  0  0  0
    5.3567   -1.2925   25.7034 H   0  0  0  0  0  0  0  0  0  0  0  0
    2.3087   -1.8197   26.8412 H   0  0  0  0  0  0  0  0  0  0  0  0
    3.9526   -1.6282   27.4221 H   0  0  0  0  0  0  0  0  0  0  0  0
    2.0810   -0.6592   28.8740 H   0  0  0  0  0  0  0  0  0  0  0  0
    3.5123    0.3263   28.5982 H   0  0  0  0  0  0  0  0  0  0  0  0
    0.8377    0.6028   27.1676 H   0  0  0  0  0  0  0  0  0  0  0  0
    1.4925    1.7096   28.3583 H   0  0  0  0  0  0  0  0  0  0  0  0
    1.7946    2.1005   25.7041 H   0  0  0  0  0  0  0  0  0  0  0  0
    2.9548    2.6811   26.8755 H   0  0  0  0  0  0  0  0  0  0  0  0
    4.5873    1.1576   26.3237 H   0  0  0  0  0  0  0  0  0  0  0  0
    3.7092    1.3365   24.7776 H   0  0  0  0  0  0  0  0  0  0  0  0
    7.9265    2.4721   17.9718 H   0  0  0  0  0  0  0  0  0  0  0  0
    9.1678   -0.2286   14.0640 H   0  0  0  0  0  0  0  0  0  0  0  0
   11.1529   -1.5836   14.1708 H   0  0  0  0  0  0  0  0  0  0  0  0
   10.5763   -1.8163   15.8125 H   0  0  0  0  0  0  0  0  0  0  0  0
   12.3061   -0.4532   16.6637 H   0  0  0  0  0  0  0  0  0  0  0  0
   13.0698   -0.8161   15.1202 H   0  0  0  0  0  0  0  0  0  0  0  0
   11.9059    1.7222   16.0735 H   0  0  0  0  0  0  0  0  0  0  0  0
   12.9382    1.4741   14.6630 H   0  0  0  0  0  0  0  0  0  0  0  0
   10.3656    2.1659   14.2853 H   0  0  0  0  0  0  0  0  0  0  0  0
   11.0992    0.9343   13.2567 H   0  0  0  0  0  0  0  0  0  0  0  0
    8.1290   -1.4089   16.1652 H   0  0  0  0  0  0  0  0  0  0  0  0
  1  2  1  0
  2  3  1  0
  3  4  1  0
  4  5  1  0
  5  6  1  0
  6  7  1  0
  7  8  1  0
  8  9  1  0
  9 10  1  0
  2 11  1  0
 11 12  2  0
 11 13  2  0
 11 14  1  0
 14 15  1  0
 15 16  2  0
 16 17  1  0
 17 18  1  0
 18 19  1  0
 19 20  1  0
 20 21  1  0
 21 22  1  0
 17 23  1  0
 10  5  1  0
 23 14  2  0
 22 18  1  0
  1 24  1  0
  1 25  1  0
  1 26  1  0
  3 27  1  0
  3 28  1  0
  4 29  1  0
  4 30  1  0
  6 31  1  0
  6 32  1  0
  7 33  1  0
  7 34  1  0
  8 35  1  0
  8 36  1  0
  9 37  1  0
  9 38  1  0
 10 39  1  0
 10 40  1  0
 15 41  1  0
 18 42  1  0
 19 43  1  0
 19 44  1  0
 20 45  1  0
 20 46  1  0
 21 47  1  0
 21 48  1  0
 22 49  1  0
 22 50  1  0
 23 51  1  0
M  END
>  <Energy>  (1123) 
485.24433978854898

>  <compound_id>  (1123) 
8637

>  <target_id>  (1123) 
1

>  <reference_id>  (1123) 
81

>  <inspiration_ids>  (1123) 
[81, 44]

>  <energy_score>  (1123) 
438.38772881446175

>  <distance_score>  (1123) 
5.717745278603413

>  <path>  (1123) 
/opt/xchem-fragalysis-2/maxwin/BulkDock/SCRATCH/511016/C8637-P81/C8637-P81.minimised.mol

>  <scratch_subdir>  (1123) 
/opt/xchem-fragalysis-2/maxwin/BulkDock/SCRATCH/511016/C8637-P81

>  <fragmenstein_runtime>  (1123) 
11.098977327346802

>  <fragmenstein_outcome>  (1123) 
too moved

>  <fragmenstein_mode>  (1123) 
expansion

>  <fragmenstein_error>  (1123) 


$$$$
C8637-P44
     RDKit          3D

 51 53  0  0  0  0  0  0  0  0999 V2000
    5.8754   -2.6571   20.7180 C   0  0  0  0  0  0  0  0  0  0  0  0
    6.3719   -1.1724   20.7167 N   0  0  0  0  0  0  0  0  0  0  0  0
    4.9423   -0.7407   22.1148 C   0  0  0  0  0  0  0  0  0  0  0  0
    4.6068   -1.5673   23.6189 C   0  0  0  0  0  0  0  0  0  0  0  0
    4.2946   -0.8983   24.9531 N   0  0  0  0  0  0  0  0  0  0  0  0
    4.5456   -1.7390   26.1239 C   0  0  0  0  0  0  0  0  0  0  0  0
    3.6591   -1.3219   27.3149 C   0  0  0  0  0  0  0  0  0  0  0  0
    3.1910    0.1324   27.2625 C   0  0  0  0  0  0  0  0  0  0  0  0
    4.2475    1.0040   26.6064 C   0  0  0  0  0  0  0  0  0  0  0  0
    4.6561    0.4916   25.2107 C   0  0  0  0  0  0  0  0  0  0  0  0
    7.0894    0.0327   18.9291 S   0  0  0  0  0  0  0  0  0  0  0  0
    6.3180   -0.6328   17.8646 O   0  0  0  0  0  0  0  0  0  0  0  0
    8.4224   -0.1898   19.4599 O   0  0  0  0  0  0  0  0  0  0  0  0
    8.3087    0.1845   17.1943 C   0  0  0  0  0  0  0  0  0  0  0  0
    8.6574   -0.7484   16.1420 C   0  0  0  0  0  0  0  0  0  0  0  0
    9.9251   -0.5675   15.7104 N   0  0  0  0  0  0  0  0  0  0  0  0
   10.1378    0.7147   16.0204 N   0  0  0  0  0  0  0  0  0  0  0  0
   11.4688    1.2333   16.5103 C   0  0  0  0  0  0  0  0  0  0  0  0
   13.3697    0.3263   16.9235 C   0  0  0  0  0  0  0  0  0  0  0  0
   14.0104    1.1574   18.8926 C   0  0  0  0  0  0  0  0  0  0  0  0
   12.2963    2.1390   19.7229 C   0  0  0  0  0  0  0  0  0  0  0  0
   10.6103    1.8026   18.3133 C   0  0  0  0  0  0  0  0  0  0  0  0
    8.8907    1.2727   16.5303 C   0  0  0  0  0  0  0  0  0  0  0  0
    5.3720   -3.0894   19.8635 H   0  0  0  0  0  0  0  0  0  0  0  0
    5.3044   -2.8564   21.5900 H   0  0  0  0  0  0  0  0  0  0  0  0
    6.7870   -3.1635   21.1095 H   0  0  0  0  0  0  0  0  0  0  0  0
    4.4092    0.0245   21.5417 H   0  0  0  0  0  0  0  0  0  0  0  0
    5.1867    0.0501   22.8720 H   0  0  0  0  0  0  0  0  0  0  0  0
    3.6861   -2.1015   23.4040 H   0  0  0  0  0  0  0  0  0  0  0  0
    5.3906   -2.2938   23.8340 H   0  0  0  0  0  0  0  0  0  0  0  0
    4.3465   -2.7963   25.9084 H   0  0  0  0  0  0  0  0  0  0  0  0
    5.6053   -1.6800   26.4043 H   0  0  0  0  0  0  0  0  0  0  0  0
    2.7808   -1.9737   27.3835 H   0  0  0  0  0  0  0  0  0  0  0  0
    4.2301   -1.4842   28.2376 H   0  0  0  0  0  0  0  0  0  0  0  0
    2.2553    0.1995   26.6995 H   0  0  0  0  0  0  0  0  0  0  0  0
    2.9709    0.4907   28.2743 H   0  0  0  0  0  0  0  0  0  0  0  0
    3.8892    2.0372   26.5330 H   0  0  0  0  0  0  0  0  0  0  0  0
    5.1356    1.0235   27.2515 H   0  0  0  0  0  0  0  0  0  0  0  0
    5.7385    0.6151   25.1355 H   0  0  0  0  0  0  0  0  0  0  0  0
    4.1890    1.1595   24.4826 H   0  0  0  0  0  0  0  0  0  0  0  0
    8.1504   -1.6302   15.7788 H   0  0  0  0  0  0  0  0  0  0  0  0
   11.6503    2.1394   15.8992 H   0  0  0  0  0  0  0  0  0  0  0  0
   14.0933    0.5281   16.0949 H   0  0  0  0  0  0  0  0  0  0  0  0
   13.2640   -0.7913   16.9039 H   0  0  0  0  0  0  0  0  0  0  0  0
   14.3648    0.3818   19.6169 H   0  0  0  0  0  0  0  0  0  0  0  0
   14.8414    1.8984   18.8236 H   0  0  0  0  0  0  0  0  0  0  0  0
   12.0363    2.2254   20.8139 H   0  0  0  0  0  0  0  0  0  0  0  0
   12.7067    3.2087   19.7535 H   0  0  0  0  0  0  0  0  0  0  0  0
    9.6270    1.3716   18.5404 H   0  0  0  0  0  0  0  0  0  0  0  0
   10.0820    2.8177   18.1650 H   0  0  0  0  0  0  0  0  0  0  0  0
    8.8069    2.3419   16.6529 H   0  0  0  0  0  0  0  0  0  0  0  0
  1  2  1  0
  2  3  1  0
  3  4  1  0
  4  5  1  0
  5  6  1  0
  6  7  1  0
  7  8  1  0
  8  9  1  0
  9 10  1  0
  2 11  1  0
 11 12  2  0
 11 13  2  0
 11 14  1  0
 14 15  1  0
 15 16  2  0
 16 17  1  0
 17 18  1  0
 18 19  1  0
 19 20  1  0
 20 21  1  0
 21 22  1  0
 17 23  1  0
 10  5  1  0
 23 14  2  0
 22 18  1  0
  1 24  1  0
  1 25  1  0
  1 26  1  0
  3 27  1  0
  3 28  1  0
  4 29  1  0
  4 30  1  0
  6 31  1  0
  6 32  1  0
  7 33  1  0
  7 34  1  0
  8 35  1  0
  8 36  1  0
  9 37  1  0
  9 38  1  0
 10 39  1  0
 10 40  1  0
 15 41  1  0
 18 42  1  0
 19 43  1  0
 19 44  1  0
 20 45  1  0
 20 46  1  0
 21 47  1  0
 21 48  1  0
 22 49  1  0
 22 50  1  0
 23 51  1  0
M  END
>  <Energy>  (1124) 
986.62874990744842

>  <compound_id>  (1124) 
8637

>  <target_id>  (1124) 
1

>  <reference_id>  (1124) 
44

>  <inspiration_ids>  (1124) 
[81, 44]

>  <energy_score>  (1124) 
939.7721389333767

>  <distance_score>  (1124) 
6.588553368675887

>  <path>  (1124) 
/opt/xchem-fragalysis-2/maxwin/BulkDock/SCRATCH/511016/C8637-P44/C8637-P44.minimised.mol

>  <scratch_subdir>  (1124) 
/opt/xchem-fragalysis-2/maxwin/BulkDock/SCRATCH/511016/C8637-P44

>  <fragmenstein_runtime>  (1124) 
7.04946231842041

>  <fragmenstein_outcome>  (1124) 
too moved

>  <fragmenstein_mode>  (1124) 
expansion

>  <fragmenstein_error>  (1124) 


$$$$
C8639-P81
     RDKit          3D

 53 55  0  0  0  0  0  0  0  0999 V2000
    5.5629   -2.2877   24.6772 C   0  0  0  0  0  0  0  0  0  0  0  0
    4.8590   -1.4568   23.6885 C   0  0  0  0  0  0  0  0  0  0  0  0
    5.7499   -0.7498   22.0530 C   0  0  0  0  0  0  0  0  0  0  0  0
    6.8626   -0.8844   20.4679 N   0  0  0  0  0  0  0  0  0  0  0  0
    7.4155    0.2339   19.4552 C   0  0  0  0  0  0  0  0  0  0  0  0
    7.3014    1.3839   19.6054 O   0  0  0  0  0  0  0  0  0  0  0  0
    8.1686   -0.0840   17.7834 C   0  0  0  0  0  0  0  0  0  0  0  0
    7.8633   -0.6297   16.4508 C   0  0  0  0  0  0  0  0  0  0  0  0
    8.8123   -0.5238   15.5211 N   0  0  0  0  0  0  0  0  0  0  0  0
    9.4729    0.5416   15.9452 N   0  0  0  0  0  0  0  0  0  0  0  0
   10.5103    1.1179   15.1052 C   0  0  0  0  0  0  0  0  0  0  0  0
   11.8981    0.5466   15.4415 C   0  0  0  0  0  0  0  0  0  0  0  0
   12.7978    1.7489   15.7131 C   0  0  0  0  0  0  0  0  0  0  0  0
   11.8468    2.8649   16.1097 C   0  0  0  0  0  0  0  0  0  0  0  0
   10.6551    2.6439   15.1915 C   0  0  0  0  0  0  0  0  0  0  0  0
    8.9430    0.9741   17.1217 C   0  0  0  0  0  0  0  0  0  0  0  0
    4.1009   -0.5834   25.1965 C   0  0  0  0  0  0  0  0  0  0  0  0
    3.0574    0.3229   25.7904 N   0  0  0  0  0  0  0  0  0  0  0  0
    2.6598   -0.1199   27.1545 C   0  0  0  0  0  0  0  0  0  0  0  0
    1.3561    0.5457   27.6426 C   0  0  0  0  0  0  0  0  0  0  0  0
    1.1361    1.9511   27.0909 C   0  0  0  0  0  0  0  0  0  0  0  0
    2.4655    2.6013   26.7681 C   0  0  0  0  0  0  0  0  0  0  0  0
    3.3434    1.7409   25.8347 C   0  0  0  0  0  0  0  0  0  0  0  0
    6.2423   -3.0313   24.2833 H   0  0  0  0  0  0  0  0  0  0  0  0
    4.6938   -2.8142   25.1102 H   0  0  0  0  0  0  0  0  0  0  0  0
    6.0796   -1.8597   25.5445 H   0  0  0  0  0  0  0  0  0  0  0  0
    4.0497   -2.0974   23.3463 H   0  0  0  0  0  0  0  0  0  0  0  0
    5.0692    0.0624   21.7993 H   0  0  0  0  0  0  0  0  0  0  0  0
    5.4504   -1.7540   21.7758 H   0  0  0  0  0  0  0  0  0  0  0  0
    7.0100   -1.7669   20.0732 H   0  0  0  0  0  0  0  0  0  0  0  0
    7.0231   -1.2188   16.1416 H   0  0  0  0  0  0  0  0  0  0  0  0
   10.2419    0.8530   14.0737 H   0  0  0  0  0  0  0  0  0  0  0  0
   12.2936   -0.0447   14.6079 H   0  0  0  0  0  0  0  0  0  0  0  0
   11.8724   -0.1154   16.3140 H   0  0  0  0  0  0  0  0  0  0  0  0
   13.3347    2.0235   14.7971 H   0  0  0  0  0  0  0  0  0  0  0  0
   13.5416    1.5418   16.4880 H   0  0  0  0  0  0  0  0  0  0  0  0
   12.2933    3.8545   15.9769 H   0  0  0  0  0  0  0  0  0  0  0  0
   11.5515    2.7633   17.1591 H   0  0  0  0  0  0  0  0  0  0  0  0
    9.7577    3.1655   15.5364 H   0  0  0  0  0  0  0  0  0  0  0  0
   10.8963    3.0378   14.1956 H   0  0  0  0  0  0  0  0  0  0  0  0
    9.1756    1.9694   17.4738 H   0  0  0  0  0  0  0  0  0  0  0  0
    3.5823   -1.4914   25.5290 H   0  0  0  0  0  0  0  0  0  0  0  0
    4.9264   -0.4083   25.8939 H   0  0  0  0  0  0  0  0  0  0  0  0
    2.4896   -1.2032   27.1952 H   0  0  0  0  0  0  0  0  0  0  0  0
    3.4718    0.0907   27.8637 H   0  0  0  0  0  0  0  0  0  0  0  0
    1.3843    0.5862   28.7386 H   0  0  0  0  0  0  0  0  0  0  0  0
    0.4911   -0.0762   27.3846 H   0  0  0  0  0  0  0  0  0  0  0  0
    0.5754    2.5547   27.8135 H   0  0  0  0  0  0  0  0  0  0  0  0
    0.5237    1.9106   26.1841 H   0  0  0  0  0  0  0  0  0  0  0  0
    3.0071    2.7723   27.7080 H   0  0  0  0  0  0  0  0  0  0  0  0
    2.3060    3.5881   26.3184 H   0  0  0  0  0  0  0  0  0  0  0  0
    3.2256    2.1318   24.8214 H   0  0  0  0  0  0  0  0  0  0  0  0
    4.3592    1.8634   26.2174 H   0  0  0  0  0  0  0  0  0  0  0  0
  1  2  1  0
  2  3  1  0
  3  4  1  0
  4  5  1  0
  5  6  2  0
  5  7  1  0
  7  8  1  0
  8  9  2  0
  9 10  1  0
 10 11  1  0
 11 12  1  0
 12 13  1  0
 13 14  1  0
 14 15  1  0
 10 16  1  0
  2 17  1  0
 17 18  1  0
 18 19  1  0
 19 20  1  0
 20 21  1  0
 21 22  1  0
 22 23  1  0
 16  7  2  0
 23 18  1  0
 15 11  1  0
  1 24  1  0
  1 25  1  0
  1 26  1  0
  2 27  1  0
  3 28  1  0
  3 29  1  0
  4 30  1  0
  8 31  1  0
 11 32  1  0
 12 33  1  0
 12 34  1  0
 13 35  1  0
 13 36  1  0
 14 37  1  0
 14 38  1  0
 15 39  1  0
 15 40  1  0
 16 41  1  0
 17 42  1  0
 17 43  1  0
 19 44  1  0
 19 45  1  0
 20 46  1  0
 20 47  1  0
 21 48  1  0
 21 49  1  0
 22 50  1  0
 22 51  1  0
 23 52  1  0
 23 53  1  0
M  END
>  <Energy>  (1125) 
391.98880246879082

>  <compound_id>  (1125) 
8639

>  <target_id>  (1125) 
1

>  <reference_id>  (1125) 
81

>  <inspiration_ids>  (1125) 
[81, 44]

>  <energy_score>  (1125) 
333.3559029643602

>  <distance_score>  (1125) 
5.2016341721994115

>  <path>  (1125) 
/opt/xchem-fragalysis-2/maxwin/BulkDock/SCRATCH/511016/C8639-P81/C8639-P81.minimised.mol

>  <scratch_subdir>  (1125) 
/opt/xchem-fragalysis-2/maxwin/BulkDock/SCRATCH/511016/C8639-P81

>  <fragmenstein_runtime>  (1125) 
12.810076236724854

>  <fragmenstein_outcome>  (1125) 
too moved

>  <fragmenstein_mode>  (1125) 
expansion

>  <fragmenstein_error>  (1125) 


$$$$
C8639-P44
     RDKit          3D

 53 55  0  0  0  0  0  0  0  0999 V2000
    5.3586   -1.8557   25.0161 C   0  0  0  0  0  0  0  0  0  0  0  0
    4.8288   -0.7675   24.0312 C   0  0  0  0  0  0  0  0  0  0  0  0
    5.1081   -0.8889   22.1500 C   0  0  0  0  0  0  0  0  0  0  0  0
    6.4181   -0.9640   20.6050 N   0  0  0  0  0  0  0  0  0  0  0  0
    7.3347    0.3754   19.7152 C   0  0  0  0  0  0  0  0  0  0  0  0
    7.3171    1.5329   20.0619 O   0  0  0  0  0  0  0  0  0  0  0  0
    8.1060    0.2619   18.3899 C   0  0  0  0  0  0  0  0  0  0  0  0
    7.8491    0.0107   16.9768 C   0  0  0  0  0  0  0  0  0  0  0  0
    8.8028    0.4003   16.1295 N   0  0  0  0  0  0  0  0  0  0  0  0
    9.1988    1.5082   16.7636 N   0  0  0  0  0  0  0  0  0  0  0  0
    9.3799    2.7105   15.9733 C   0  0  0  0  0  0  0  0  0  0  0  0
   10.5633    2.6433   15.0061 C   0  0  0  0  0  0  0  0  0  0  0  0
   10.7756    4.0954   14.6134 C   0  0  0  0  0  0  0  0  0  0  0  0
   10.5750    4.8494   15.9183 C   0  0  0  0  0  0  0  0  0  0  0  0
    9.4962    4.0743   16.6777 C   0  0  0  0  0  0  0  0  0  0  0  0
    8.9557    1.3763   18.1039 C   0  0  0  0  0  0  0  0  0  0  0  0
    4.6248    0.6291   24.7591 C   0  0  0  0  0  0  0  0  0  0  0  0
    3.4780    0.8450   25.6915 N   0  0  0  0  0  0  0  0  0  0  0  0
    3.5888    0.2735   27.0259 C   0  0  0  0  0  0  0  0  0  0  0  0
    2.2280    0.3363   27.7480 C   0  0  0  0  0  0  0  0  0  0  0  0
    1.4495    1.6303   27.5036 C   0  0  0  0  0  0  0  0  0  0  0  0
    2.3739    2.7307   27.0166 C   0  0  0  0  0  0  0  0  0  0  0  0
    3.1819    2.2983   25.7829 C   0  0  0  0  0  0  0  0  0  0  0  0
    5.6161   -2.7674   24.4895 H   0  0  0  0  0  0  0  0  0  0  0  0
    6.2128   -1.5095   25.6080 H   0  0  0  0  0  0  0  0  0  0  0  0
    4.5872   -2.1608   25.7282 H   0  0  0  0  0  0  0  0  0  0  0  0
    3.8282   -1.1944   24.0258 H   0  0  0  0  0  0  0  0  0  0  0  0
    4.4911   -0.1604   21.6784 H   0  0  0  0  0  0  0  0  0  0  0  0
    4.9590   -1.9596   22.3779 H   0  0  0  0  0  0  0  0  0  0  0  0
    6.5066   -1.8192   20.0934 H   0  0  0  0  0  0  0  0  0  0  0  0
    6.9877   -0.4647   16.5272 H   0  0  0  0  0  0  0  0  0  0  0  0
    8.4639    2.7734   15.3681 H   0  0  0  0  0  0  0  0  0  0  0  0
   10.3505    2.0152   14.1346 H   0  0  0  0  0  0  0  0  0  0  0  0
   11.4572    2.2411   15.4906 H   0  0  0  0  0  0  0  0  0  0  0  0
   10.0209    4.4030   13.8798 H   0  0  0  0  0  0  0  0  0  0  0  0
   11.7645    4.2697   14.1802 H   0  0  0  0  0  0  0  0  0  0  0  0
   10.2916    5.8931   15.7516 H   0  0  0  0  0  0  0  0  0  0  0  0
   11.5078    4.8488   16.4936 H   0  0  0  0  0  0  0  0  0  0  0  0
    9.7418    4.0268   17.7400 H   0  0  0  0  0  0  0  0  0  0  0  0
    8.5372    4.6026   16.6078 H   0  0  0  0  0  0  0  0  0  0  0  0
    9.1995    2.2027   18.7612 H   0  0  0  0  0  0  0  0  0  0  0  0
    5.5543    0.9043   25.2717 H   0  0  0  0  0  0  0  0  0  0  0  0
    4.4601    1.3578   23.9640 H   0  0  0  0  0  0  0  0  0  0  0  0
    3.8859   -0.7740   27.0052 H   0  0  0  0  0  0  0  0  0  0  0  0
    4.3540    0.8000   27.6112 H   0  0  0  0  0  0  0  0  0  0  0  0
    2.4055    0.2171   28.8240 H   0  0  0  0  0  0  0  0  0  0  0  0
    1.6029   -0.5125   27.4465 H   0  0  0  0  0  0  0  0  0  0  0  0
    0.9368    1.9380   28.4220 H   0  0  0  0  0  0  0  0  0  0  0  0
    0.6648    1.4549   26.7594 H   0  0  0  0  0  0  0  0  0  0  0  0
    3.0668    2.9944   27.8262 H   0  0  0  0  0  0  0  0  0  0  0  0
    1.7995    3.6350   26.7863 H   0  0  0  0  0  0  0  0  0  0  0  0
    2.6271    2.5867   24.8815 H   0  0  0  0  0  0  0  0  0  0  0  0
    4.1110    2.8842   25.7816 H   0  0  0  0  0  0  0  0  0  0  0  0
  1  2  1  0
  2  3  1  0
  3  4  1  0
  4  5  1  0
  5  6  2  0
  5  7  1  0
  7  8  1  0
  8  9  2  0
  9 10  1  0
 10 11  1  0
 11 12  1  0
 12 13  1  0
 13 14  1  0
 14 15  1  0
 10 16  1  0
  2 17  1  0
 17 18  1  0
 18 19  1  0
 19 20  1  0
 20 21  1  0
 21 22  1  0
 22 23  1  0
 16  7  2  0
 23 18  1  0
 15 11  1  0
  1 24  1  0
  1 25  1  0
  1 26  1  0
  2 27  1  0
  3 28  1  0
  3 29  1  0
  4 30  1  0
  8 31  1  0
 11 32  1  0
 12 33  1  0
 12 34  1  0
 13 35  1  0
 13 36  1  0
 14 37  1  0
 14 38  1  0
 15 39  1  0
 15 40  1  0
 16 41  1  0
 17 42  1  0
 17 43  1  0
 19 44  1  0
 19 45  1  0
 20 46  1  0
 20 47  1  0
 21 48  1  0
 21 49  1  0
 22 50  1  0
 22 51  1  0
 23 52  1  0
 23 53  1  0
M  END
>  <Energy>  (1126) 
314.07623983249204

>  <compound_id>  (1126) 
8639

>  <target_id>  (1126) 
1

>  <reference_id>  (1126) 
44

>  <inspiration_ids>  (1126) 
[81, 44]

>  <energy_score>  (1126) 
255.44334032807194

>  <distance_score>  (1126) 
5.79429685524143

>  <path>  (1126) 
/opt/xchem-fragalysis-2/maxwin/BulkDock/SCRATCH/511016/C8639-P44/C8639-P44.minimised.mol

>  <scratch_subdir>  (1126) 
/opt/xchem-fragalysis-2/maxwin/BulkDock/SCRATCH/511016/C8639-P44

>  <fragmenstein_runtime>  (1126) 
12.435984373092651

>  <fragmenstein_outcome>  (1126) 
too moved

>  <fragmenstein_mode>  (1126) 
expansion

>  <fragmenstein_error>  (1126) 


$$$$
C8640-P81
     RDKit          3D

 44 46  0  0  0  0  0  0  0  0999 V2000
    5.6467   -2.6161   21.6157 O   0  0  0  0  0  0  0  0  0  0  0  0
    5.4549   -1.4965   22.0543 C   0  0  0  0  0  0  0  0  0  0  0  0
    4.6248   -1.6115   23.7401 C   0  0  0  0  0  0  0  0  0  0  0  0
    4.4672   -0.9122   25.2142 N   0  0  0  0  0  0  0  0  0  0  0  0
    3.7528   -1.8026   26.1761 C   0  0  0  0  0  0  0  0  0  0  0  0
    2.8653   -1.1472   27.2597 C   0  0  0  0  0  0  0  0  0  0  0  0
    3.5272    0.0918   27.8521 C   0  0  0  0  0  0  0  0  0  0  0  0
    4.1222    0.9899   26.7694 C   0  0  0  0  0  0  0  0  0  0  0  0
    3.8793    0.4135   25.3740 C   0  0  0  0  0  0  0  0  0  0  0  0
    5.9470   -0.0789   21.3898 N   0  0  0  0  0  0  0  0  0  0  0  0
    7.0520    0.2925   19.8634 C   0  0  0  0  0  0  0  0  0  0  0  0
    7.3532   -0.5152   18.7978 C   0  0  0  0  0  0  0  0  0  0  0  0
    8.0562   -0.0673   17.4915 C   0  0  0  0  0  0  0  0  0  0  0  0
    8.3832    1.1928   17.5162 N   0  0  0  0  0  0  0  0  0  0  0  0
    7.5417    1.6829   18.7461 N   0  0  0  0  0  0  0  0  0  0  0  0
    7.1265    3.1638   18.0578 C   0  0  0  0  0  0  0  0  0  0  0  0
    8.3396    3.8308   17.2909 C   0  0  0  0  0  0  0  0  0  0  0  0
    8.2807    5.3269   17.5772 C   0  0  0  0  0  0  0  0  0  0  0  0
    6.8263    5.5999   17.8842 C   0  0  0  0  0  0  0  0  0  0  0  0
    6.3946    4.4002   18.7165 C   0  0  0  0  0  0  0  0  0  0  0  0
    5.4447   -2.1929   24.1239 H   0  0  0  0  0  0  0  0  0  0  0  0
    3.7719   -2.2937   23.6443 H   0  0  0  0  0  0  0  0  0  0  0  0
    3.1684   -2.5682   25.6626 H   0  0  0  0  0  0  0  0  0  0  0  0
    4.5205   -2.2940   26.7675 H   0  0  0  0  0  0  0  0  0  0  0  0
    2.6705   -1.8741   28.0578 H   0  0  0  0  0  0  0  0  0  0  0  0
    1.8862   -0.8838   26.8559 H   0  0  0  0  0  0  0  0  0  0  0  0
    2.8023    0.6499   28.4556 H   0  0  0  0  0  0  0  0  0  0  0  0
    4.3264   -0.2161   28.5377 H   0  0  0  0  0  0  0  0  0  0  0  0
    5.1947    1.1212   26.9510 H   0  0  0  0  0  0  0  0  0  0  0  0
    3.6716    1.9874   26.8364 H   0  0  0  0  0  0  0  0  0  0  0  0
    4.1511    1.0988   24.6035 H   0  0  0  0  0  0  0  0  0  0  0  0
    2.8249    0.4235   25.2561 H   0  0  0  0  0  0  0  0  0  0  0  0
    5.5653    0.6967   21.9409 H   0  0  0  0  0  0  0  0  0  0  0  0
    6.5149   -1.1422   18.5998 H   0  0  0  0  0  0  0  0  0  0  0  0
    8.1507   -0.5846   16.5423 H   0  0  0  0  0  0  0  0  0  0  0  0
    6.4654    2.8548   17.2379 H   0  0  0  0  0  0  0  0  0  0  0  0
    8.2082    3.6647   16.2133 H   0  0  0  0  0  0  0  0  0  0  0  0
    9.3298    3.4479   17.5495 H   0  0  0  0  0  0  0  0  0  0  0  0
    8.6443    5.9200   16.7327 H   0  0  0  0  0  0  0  0  0  0  0  0
    8.9028    5.5705   18.4459 H   0  0  0  0  0  0  0  0  0  0  0  0
    6.2451    5.6418   16.9552 H   0  0  0  0  0  0  0  0  0  0  0  0
    6.6826    6.5444   18.4168 H   0  0  0  0  0  0  0  0  0  0  0  0
    6.6355    4.5634   19.7698 H   0  0  0  0  0  0  0  0  0  0  0  0
    5.3037    4.3076   18.6440 H   0  0  0  0  0  0  0  0  0  0  0  0
  1  2  2  0
  2  3  1  0
  3  4  1  0
  4  5  1  0
  5  6  1  0
  6  7  1  0
  7  8  1  0
  8  9  1  0
  2 10  1  0
 10 11  1  0
 11 12  2  0
 12 13  1  0
 13 14  2  0
 14 15  1  0
 15 16  1  0
 16 17  1  0
 17 18  1  0
 18 19  1  0
 19 20  1  0
  9  4  1  0
 15 11  1  0
 20 16  1  0
  3 21  1  0
  3 22  1  0
  5 23  1  0
  5 24  1  0
  6 25  1  0
  6 26  1  0
  7 27  1  0
  7 28  1  0
  8 29  1  0
  8 30  1  0
  9 31  1  0
  9 32  1  0
 10 33  1  0
 12 34  1  0
 13 35  1  0
 16 36  1  0
 17 37  1  0
 17 38  1  0
 18 39  1  0
 18 40  1  0
 19 41  1  0
 19 42  1  0
 20 43  1  0
 20 44  1  0
M  END
>  <Energy>  (1127) 
486.54146374134012

>  <compound_id>  (1127) 
8640

>  <target_id>  (1127) 
1

>  <reference_id>  (1127) 
81

>  <inspiration_ids>  (1127) 
[81, 44]

>  <energy_score>  (1127) 
340.8528702874313

>  <distance_score>  (1127) 
7.000092903214706

>  <path>  (1127) 
/opt/xchem-fragalysis-2/maxwin/BulkDock/SCRATCH/511016/C8640-P81/C8640-P81.minimised.mol

>  <scratch_subdir>  (1127) 
/opt/xchem-fragalysis-2/maxwin/BulkDock/SCRATCH/511016/C8640-P81

>  <fragmenstein_runtime>  (1127) 
11.008916854858398

>  <fragmenstein_outcome>  (1127) 
too moved

>  <fragmenstein_mode>  (1127) 
expansion

>  <fragmenstein_error>  (1127) 


$$$$
C8640-P44
     RDKit          3D

 44 46  0  0  0  0  0  0  0  0999 V2000
    5.3089    0.5320   23.8164 O   0  0  0  0  0  0  0  0  0  0  0  0
    4.6254    1.0201   22.8934 C   0  0  0  0  0  0  0  0  0  0  0  0
    3.2742    1.9521   23.3746 C   0  0  0  0  0  0  0  0  0  0  0  0
    3.7135    3.1839   24.1153 N   0  0  0  0  0  0  0  0  0  0  0  0
    4.0708    2.8551   25.5169 C   0  0  0  0  0  0  0  0  0  0  0  0
    3.1621    3.4679   26.5976 C   0  0  0  0  0  0  0  0  0  0  0  0
    1.6878    3.3446   26.2430 C   0  0  0  0  0  0  0  0  0  0  0  0
    1.4005    3.9093   24.8548 C   0  0  0  0  0  0  0  0  0  0  0  0
    2.6759    4.2266   24.0637 C   0  0  0  0  0  0  0  0  0  0  0  0
    4.8948    1.0376   21.1444 N   0  0  0  0  0  0  0  0  0  0  0  0
    6.4376    0.4444   20.0883 C   0  0  0  0  0  0  0  0  0  0  0  0
    6.9019    0.0154   18.7391 C   0  0  0  0  0  0  0  0  0  0  0  0
    8.1780    0.3939   18.3711 C   0  0  0  0  0  0  0  0  0  0  0  0
    8.6696    0.9374   19.4460 N   0  0  0  0  0  0  0  0  0  0  0  0
    7.6103    1.7211   19.7561 N   0  0  0  0  0  0  0  0  0  0  0  0
    7.6501    2.9999   18.8821 C   0  0  0  0  0  0  0  0  0  0  0  0
    9.1335    3.4029   18.6114 C   0  0  0  0  0  0  0  0  0  0  0  0
    9.1491    4.8354   18.1145 C   0  0  0  0  0  0  0  0  0  0  0  0
    8.1209    5.4837   19.0003 C   0  0  0  0  0  0  0  0  0  0  0  0
    7.0136    4.4343   19.0496 C   0  0  0  0  0  0  0  0  0  0  0  0
    2.6922    1.4305   24.1081 H   0  0  0  0  0  0  0  0  0  0  0  0
    2.7417    2.2799   22.4827 H   0  0  0  0  0  0  0  0  0  0  0  0
    4.1157    1.7725   25.6868 H   0  0  0  0  0  0  0  0  0  0  0  0
    5.0922    3.2167   25.6877 H   0  0  0  0  0  0  0  0  0  0  0  0
    3.4168    4.5269   26.7330 H   0  0  0  0  0  0  0  0  0  0  0  0
    3.3563    2.9779   27.5588 H   0  0  0  0  0  0  0  0  0  0  0  0
    1.3950    2.2893   26.2785 H   0  0  0  0  0  0  0  0  0  0  0  0
    1.0744    3.8578   26.9923 H   0  0  0  0  0  0  0  0  0  0  0  0
    0.8111    4.8294   24.9506 H   0  0  0  0  0  0  0  0  0  0  0  0
    0.7719    3.2047   24.2989 H   0  0  0  0  0  0  0  0  0  0  0  0
    3.1104    5.1617   24.4417 H   0  0  0  0  0  0  0  0  0  0  0  0
    2.4135    4.4470   23.0212 H   0  0  0  0  0  0  0  0  0  0  0  0
    4.0965    1.4377   20.6831 H   0  0  0  0  0  0  0  0  0  0  0  0
    6.3079   -0.4909   17.9891 H   0  0  0  0  0  0  0  0  0  0  0  0
    8.7193    0.3062   17.4387 H   0  0  0  0  0  0  0  0  0  0  0  0
    7.2854    2.6720   17.9129 H   0  0  0  0  0  0  0  0  0  0  0  0
    9.5683    2.7538   17.8471 H   0  0  0  0  0  0  0  0  0  0  0  0
    9.7202    3.3353   19.5363 H   0  0  0  0  0  0  0  0  0  0  0  0
   10.1355    5.2986   18.2057 H   0  0  0  0  0  0  0  0  0  0  0  0
    8.8422    4.8806   17.0631 H   0  0  0  0  0  0  0  0  0  0  0  0
    7.7668    6.4365   18.5954 H   0  0  0  0  0  0  0  0  0  0  0  0
    8.5387    5.6758   19.9937 H   0  0  0  0  0  0  0  0  0  0  0  0
    6.4063    4.6208   18.1487 H   0  0  0  0  0  0  0  0  0  0  0  0
    6.3394    4.6214   19.8820 H   0  0  0  0  0  0  0  0  0  0  0  0
  1  2  2  0
  2  3  1  0
  3  4  1  0
  4  5  1  0
  5  6  1  0
  6  7  1  0
  7  8  1  0
  8  9  1  0
  2 10  1  0
 10 11  1  0
 11 12  2  0
 12 13  1  0
 13 14  2  0
 14 15  1  0
 15 16  1  0
 16 17  1  0
 17 18  1  0
 18 19  1  0
 19 20  1  0
  9  4  1  0
 15 11  1  0
 20 16  1  0
  3 21  1  0
  3 22  1  0
  5 23  1  0
  5 24  1  0
  6 25  1  0
  6 26  1  0
  7 27  1  0
  7 28  1  0
  8 29  1  0
  8 30  1  0
  9 31  1  0
  9 32  1  0
 10 33  1  0
 12 34  1  0
 13 35  1  0
 16 36  1  0
 17 37  1  0
 17 38  1  0
 18 39  1  0
 18 40  1  0
 19 41  1  0
 19 42  1  0
 20 43  1  0
 20 44  1  0
M  END
>  <Energy>  (1128) 
388.92931769805438

>  <compound_id>  (1128) 
8640

>  <target_id>  (1128) 
1

>  <reference_id>  (1128) 
44

>  <inspiration_ids>  (1128) 
[81, 44]

>  <energy_score>  (1128) 
243.24072424414624

>  <distance_score>  (1128) 
6.403239630318176

>  <path>  (1128) 
/opt/xchem-fragalysis-2/maxwin/BulkDock/SCRATCH/511016/C8640-P44/C8640-P44.minimised.mol

>  <scratch_subdir>  (1128) 
/opt/xchem-fragalysis-2/maxwin/BulkDock/SCRATCH/511016/C8640-P44

>  <fragmenstein_runtime>  (1128) 
7.491827964782715

>  <fragmenstein_outcome>  (1128) 
too moved

>  <fragmenstein_mode>  (1128) 
expansion

>  <fragmenstein_error>  (1128) 


$$$$
C8641-P81
     RDKit          3D

 56 58  0  0  0  0  0  0  0  0999 V2000
    7.0967   -5.9108   23.1440 C   0  0  0  0  0  0  0  0  0  0  0  0
    7.0465   -4.3504   23.3915 C   0  0  0  0  0  0  0  0  0  0  0  0
    6.2511   -3.1763   22.5801 C   0  0  0  0  0  0  0  0  0  0  0  0
    5.9701   -2.1328   21.2711 N   0  0  0  0  0  0  0  0  0  0  0  0
    5.0381   -1.2600   22.5757 C   0  0  0  0  0  0  0  0  0  0  0  0
    4.6736   -1.5488   24.4719 C   0  0  0  0  0  0  0  0  0  0  0  0
    3.7026   -0.8723   25.4748 N   0  0  0  0  0  0  0  0  0  0  0  0
    3.4507   -1.7164   26.6467 C   0  0  0  0  0  0  0  0  0  0  0  0
    2.2794   -1.2305   27.5226 C   0  0  0  0  0  0  0  0  0  0  0  0
    2.1428    0.2848   27.6275 C   0  0  0  0  0  0  0  0  0  0  0  0
    3.4316    0.9708   27.2323 C   0  0  0  0  0  0  0  0  0  0  0  0
    3.9984    0.4949   25.8794 C   0  0  0  0  0  0  0  0  0  0  0  0
    7.1419   -0.9201   20.3106 C   0  0  0  0  0  0  0  0  0  0  0  0
    8.1519   -0.8864   20.8141 O   0  0  0  0  0  0  0  0  0  0  0  0
    7.2425    0.0079   18.8419 C   0  0  0  0  0  0  0  0  0  0  0  0
    8.0697   -0.1678   17.2998 C   0  0  0  0  0  0  0  0  0  0  0  0
    8.5030    1.0011   16.7021 C   0  0  0  0  0  0  0  0  0  0  0  0
    8.0521    1.9851   17.4990 N   0  0  0  0  0  0  0  0  0  0  0  0
    8.1055    3.4158   17.2258 C   0  0  0  0  0  0  0  0  0  0  0  0
    9.4812    3.9449   16.7951 C   0  0  0  0  0  0  0  0  0  0  0  0
    9.1534    5.2484   16.0848 C   0  0  0  0  0  0  0  0  0  0  0  0
    7.9139    4.8902   15.2834 C   0  0  0  0  0  0  0  0  0  0  0  0
    7.1140    3.9651   16.1982 C   0  0  0  0  0  0  0  0  0  0  0  0
    7.6012    1.5461   18.7479 N   0  0  0  0  0  0  0  0  0  0  0  0
    7.0693   -6.1848   22.1225 H   0  0  0  0  0  0  0  0  0  0  0  0
    7.9277   -6.3866   23.6217 H   0  0  0  0  0  0  0  0  0  0  0  0
    6.2280   -6.4808   23.5233 H   0  0  0  0  0  0  0  0  0  0  0  0
    6.2910   -4.5653   24.0583 H   0  0  0  0  0  0  0  0  0  0  0  0
    7.3937   -3.8008   24.2486 H   0  0  0  0  0  0  0  0  0  0  0  0
    7.2848   -3.4184   22.0729 H   0  0  0  0  0  0  0  0  0  0  0  0
    6.0554   -2.5929   23.4452 H   0  0  0  0  0  0  0  0  0  0  0  0
    4.1814   -1.8296   22.7581 H   0  0  0  0  0  0  0  0  0  0  0  0
    4.8735   -0.2685   22.1381 H   0  0  0  0  0  0  0  0  0  0  0  0
    5.5781   -1.7869   25.0292 H   0  0  0  0  0  0  0  0  0  0  0  0
    4.1395   -2.5058   24.4314 H   0  0  0  0  0  0  0  0  0  0  0  0
    4.3597   -1.7839   27.2587 H   0  0  0  0  0  0  0  0  0  0  0  0
    3.2064   -2.7336   26.3345 H   0  0  0  0  0  0  0  0  0  0  0  0
    2.4189   -1.6472   28.5284 H   0  0  0  0  0  0  0  0  0  0  0  0
    1.3342   -1.6476   27.1646 H   0  0  0  0  0  0  0  0  0  0  0  0
    1.3232    0.6419   26.9979 H   0  0  0  0  0  0  0  0  0  0  0  0
    1.8668    0.5614   28.6519 H   0  0  0  0  0  0  0  0  0  0  0  0
    4.1779    0.7714   28.0135 H   0  0  0  0  0  0  0  0  0  0  0  0
    3.2918    2.0578   27.2115 H   0  0  0  0  0  0  0  0  0  0  0  0
    5.0693    0.6245   25.9994 H   0  0  0  0  0  0  0  0  0  0  0  0
    3.6268    1.1663   25.1024 H   0  0  0  0  0  0  0  0  0  0  0  0
    8.3069   -1.0220   16.6817 H   0  0  0  0  0  0  0  0  0  0  0  0
    9.0071    1.1796   15.7663 H   0  0  0  0  0  0  0  0  0  0  0  0
    7.8085    3.9402   18.1331 H   0  0  0  0  0  0  0  0  0  0  0  0
   10.1523    4.1056   17.6429 H   0  0  0  0  0  0  0  0  0  0  0  0
    9.9844    3.2645   16.0990 H   0  0  0  0  0  0  0  0  0  0  0  0
    9.9739    5.5955   15.4506 H   0  0  0  0  0  0  0  0  0  0  0  0
    8.9235    6.0340   16.8141 H   0  0  0  0  0  0  0  0  0  0  0  0
    7.3412    5.7731   14.9846 H   0  0  0  0  0  0  0  0  0  0  0  0
    8.2123    4.3611   14.3724 H   0  0  0  0  0  0  0  0  0  0  0  0
    6.6012    3.1827   15.6587 H   0  0  0  0  0  0  0  0  0  0  0  0
    6.3337    4.5432   16.7099 H   0  0  0  0  0  0  0  0  0  0  0  0
  1  2  1  0
  2  3  1  0
  3  4  1  0
  4  5  1  0
  5  6  1  0
  6  7  1  0
  7  8  1  0
  8  9  1  0
  9 10  1  0
 10 11  1  0
 11 12  1  0
  4 13  1  0
 13 14  2  0
 13 15  1  0
 15 16  1  0
 16 17  2  0
 17 18  1  0
 18 19  1  0
 19 20  1  0
 20 21  1  0
 21 22  1  0
 22 23  1  0
 18 24  1  0
 12  7  1  0
 24 15  2  0
 23 19  1  0
  1 25  1  0
  1 26  1  0
  1 27  1  0
  2 28  1  0
  2 29  1  0
  3 30  1  0
  3 31  1  0
  5 32  1  0
  5 33  1  0
  6 34  1  0
  6 35  1  0
  8 36  1  0
  8 37  1  0
  9 38  1  0
  9 39  1  0
 10 40  1  0
 10 41  1  0
 11 42  1  0
 11 43  1  0
 12 44  1  0
 12 45  1  0
 16 46  1  0
 17 47  1  0
 19 48  1  0
 20 49  1  0
 20 50  1  0
 21 51  1  0
 21 52  1  0
 22 53  1  0
 22 54  1  0
 23 55  1  0
 23 56  1  0
M  END
>  <Energy>  (1129) 
673.97686039802784

>  <compound_id>  (1129) 
8641

>  <target_id>  (1129) 
1

>  <reference_id>  (1129) 
81

>  <inspiration_ids>  (1129) 
[81, 44]

>  <energy_score>  (1129) 
558.9529739039991

>  <distance_score>  (1129) 
6.440233663378907

>  <path>  (1129) 
/opt/xchem-fragalysis-2/maxwin/BulkDock/SCRATCH/511016/C8641-P81/C8641-P81.minimised.mol

>  <scratch_subdir>  (1129) 
/opt/xchem-fragalysis-2/maxwin/BulkDock/SCRATCH/511016/C8641-P81

>  <fragmenstein_runtime>  (1129) 
14.94313907623291

>  <fragmenstein_outcome>  (1129) 
too moved

>  <fragmenstein_mode>  (1129) 
expansion

>  <fragmenstein_error>  (1129) 


$$$$
C8641-P44
     RDKit          3D

 56 58  0  0  0  0  0  0  0  0999 V2000
    4.4249   -8.0438   25.0448 C   0  0  0  0  0  0  0  0  0  0  0  0
    5.7372   -7.3091   24.7491 C   0  0  0  0  0  0  0  0  0  0  0  0
    5.6294   -6.2124   23.3368 C   0  0  0  0  0  0  0  0  0  0  0  0
    6.9754   -5.9322   22.9248 N   0  0  0  0  0  0  0  0  0  0  0  0
    6.8364   -5.1824   24.4956 C   0  0  0  0  0  0  0  0  0  0  0  0
    5.4804   -4.5921   25.5003 C   0  0  0  0  0  0  0  0  0  0  0  0
    5.7485   -4.1038   26.8822 N   0  0  0  0  0  0  0  0  0  0  0  0
    4.5931   -4.2906   27.7839 C   0  0  0  0  0  0  0  0  0  0  0  0
    3.4143   -3.3491   27.5226 C   0  0  0  0  0  0  0  0  0  0  0  0
    3.8375   -1.8863   27.5756 C   0  0  0  0  0  0  0  0  0  0  0  0
    5.0414   -1.6483   26.6724 C   0  0  0  0  0  0  0  0  0  0  0  0
    6.1583   -2.6794   26.9266 C   0  0  0  0  0  0  0  0  0  0  0  0
    7.7248   -4.8387   21.4587 C   0  0  0  0  0  0  0  0  0  0  0  0
    7.1951   -4.1124   20.6678 O   0  0  0  0  0  0  0  0  0  0  0  0
    9.7812   -5.0731   20.9671 C   0  0  0  0  0  0  0  0  0  0  0  0
   10.8152   -6.3092   21.1038 C   0  0  0  0  0  0  0  0  0  0  0  0
   12.1245   -5.9356   21.2428 C   0  0  0  0  0  0  0  0  0  0  0  0
   12.0940   -4.6052   21.3574 N   0  0  0  0  0  0  0  0  0  0  0  0
   13.2534   -3.7586   21.5939 C   0  0  0  0  0  0  0  0  0  0  0  0
   14.0566   -4.1327   22.8541 C   0  0  0  0  0  0  0  0  0  0  0  0
   15.5176   -4.0580   22.4304 C   0  0  0  0  0  0  0  0  0  0  0  0
   15.4907   -4.4820   20.9723 C   0  0  0  0  0  0  0  0  0  0  0  0
   14.2541   -3.7825   20.4251 C   0  0  0  0  0  0  0  0  0  0  0  0
   10.8567   -4.1159   21.5488 N   0  0  0  0  0  0  0  0  0  0  0  0
    3.6467   -7.3417   25.3585 H   0  0  0  0  0  0  0  0  0  0  0  0
    4.5761   -8.7585   25.8601 H   0  0  0  0  0  0  0  0  0  0  0  0
    4.0450   -8.5952   24.1826 H   0  0  0  0  0  0  0  0  0  0  0  0
    6.0138   -6.8325   25.6930 H   0  0  0  0  0  0  0  0  0  0  0  0
    6.5857   -7.9850   24.6112 H   0  0  0  0  0  0  0  0  0  0  0  0
    5.8053   -7.0260   22.6273 H   0  0  0  0  0  0  0  0  0  0  0  0
    4.6630   -6.6280   23.1647 H   0  0  0  0  0  0  0  0  0  0  0  0
    6.4059   -4.3907   23.8711 H   0  0  0  0  0  0  0  0  0  0  0  0
    7.7190   -5.2171   25.1507 H   0  0  0  0  0  0  0  0  0  0  0  0
    5.0267   -3.7443   24.9836 H   0  0  0  0  0  0  0  0  0  0  0  0
    4.6870   -5.3390   25.5316 H   0  0  0  0  0  0  0  0  0  0  0  0
    4.9386   -4.1465   28.8161 H   0  0  0  0  0  0  0  0  0  0  0  0
    4.2511   -5.3322   27.7398 H   0  0  0  0  0  0  0  0  0  0  0  0
    2.6227   -3.5320   28.2576 H   0  0  0  0  0  0  0  0  0  0  0  0
    3.0035   -3.5860   26.5406 H   0  0  0  0  0  0  0  0  0  0  0  0
    3.0074   -1.2348   27.2837 H   0  0  0  0  0  0  0  0  0  0  0  0
    4.1025   -1.6243   28.6072 H   0  0  0  0  0  0  0  0  0  0  0  0
    5.4336   -0.6394   26.8460 H   0  0  0  0  0  0  0  0  0  0  0  0
    4.7292   -1.6819   25.6227 H   0  0  0  0  0  0  0  0  0  0  0  0
    6.5742   -2.4897   27.9256 H   0  0  0  0  0  0  0  0  0  0  0  0
    6.9892   -2.4951   26.2420 H   0  0  0  0  0  0  0  0  0  0  0  0
   10.5509   -7.3584   21.1897 H   0  0  0  0  0  0  0  0  0  0  0  0
   13.0339   -6.5072   21.3475 H   0  0  0  0  0  0  0  0  0  0  0  0
   12.8887   -2.7383   21.7147 H   0  0  0  0  0  0  0  0  0  0  0  0
   13.8478   -3.4452   23.6809 H   0  0  0  0  0  0  0  0  0  0  0  0
   13.8259   -5.1419   23.2131 H   0  0  0  0  0  0  0  0  0  0  0  0
   16.1593   -4.7006   23.0400 H   0  0  0  0  0  0  0  0  0  0  0  0
   15.8829   -3.0279   22.5186 H   0  0  0  0  0  0  0  0  0  0  0  0
   15.3792   -5.5695   20.8935 H   0  0  0  0  0  0  0  0  0  0  0  0
   16.4001   -4.1925   20.4380 H   0  0  0  0  0  0  0  0  0  0  0  0
   14.5152   -2.7517   20.1539 H   0  0  0  0  0  0  0  0  0  0  0  0
   13.8746   -4.2710   19.5215 H   0  0  0  0  0  0  0  0  0  0  0  0
  1  2  1  0
  2  3  1  0
  3  4  1  0
  4  5  1  0
  5  6  1  0
  6  7  1  0
  7  8  1  0
  8  9  1  0
  9 10  1  0
 10 11  1  0
 11 12  1  0
  4 13  1  0
 13 14  2  0
 13 15  1  0
 15 16  1  0
 16 17  2  0
 17 18  1  0
 18 19  1  0
 19 20  1  0
 20 21  1  0
 21 22  1  0
 22 23  1  0
 18 24  1  0
 12  7  1  0
 24 15  2  0
 23 19  1  0
  1 25  1  0
  1 26  1  0
  1 27  1  0
  2 28  1  0
  2 29  1  0
  3 30  1  0
  3 31  1  0
  5 32  1  0
  5 33  1  0
  6 34  1  0
  6 35  1  0
  8 36  1  0
  8 37  1  0
  9 38  1  0
  9 39  1  0
 10 40  1  0
 10 41  1  0
 11 42  1  0
 11 43  1  0
 12 44  1  0
 12 45  1  0
 16 46  1  0
 17 47  1  0
 19 48  1  0
 20 49  1  0
 20 50  1  0
 21 51  1  0
 21 52  1  0
 22 53  1  0
 22 54  1  0
 23 55  1  0
 23 56  1  0
M  END
>  <Energy>  (1130) 
625.56563325352499

>  <compound_id>  (1130) 
8641

>  <target_id>  (1130) 
1

>  <reference_id>  (1130) 
44

>  <inspiration_ids>  (1130) 
[81, 44]

>  <energy_score>  (1130) 
510.5417467594842

>  <distance_score>  (1130) 
8.257403192489221

>  <path>  (1130) 
/opt/xchem-fragalysis-2/maxwin/BulkDock/SCRATCH/511016/C8641-P44/C8641-P44.minimised.mol

>  <scratch_subdir>  (1130) 
/opt/xchem-fragalysis-2/maxwin/BulkDock/SCRATCH/511016/C8641-P44

>  <fragmenstein_runtime>  (1130) 
11.283708333969116

>  <fragmenstein_outcome>  (1130) 
too moved

>  <fragmenstein_mode>  (1130) 
expansion

>  <fragmenstein_error>  (1130) 


$$$$
C8642-P81
     RDKit          3D

 48 50  0  0  0  0  0  0  0  0999 V2000
    3.6403    1.1336   24.3758 C   0  0  0  0  0  0  0  0  0  0  0  0
    4.0806    1.3408   22.6136 C   0  0  0  0  0  0  0  0  0  0  0  0
    5.5014    0.2848   21.8869 O   0  0  0  0  0  0  0  0  0  0  0  0
    6.4739   -0.0958   20.3969 C   0  0  0  0  0  0  0  0  0  0  0  0
    5.8748    0.2682   19.4415 O   0  0  0  0  0  0  0  0  0  0  0  0
    7.6070   -0.5549   20.0090 C   0  0  0  0  0  0  0  0  0  0  0  0
    8.4434   -0.8270   19.0814 C   0  0  0  0  0  0  0  0  0  0  0  0
    8.8112   -0.5163   17.7131 N   0  0  0  0  0  0  0  0  0  0  0  0
    8.0744    0.4316   17.5353 N   0  0  0  0  0  0  0  0  0  0  0  0
    8.3339    1.0556   16.2604 C   0  0  0  0  0  0  0  0  0  0  0  0
    9.1107    0.1238   15.2538 C   0  0  0  0  0  0  0  0  0  0  0  0
   10.5716    0.5384   15.3589 C   0  0  0  0  0  0  0  0  0  0  0  0
   10.4876    2.0427   15.5157 C   0  0  0  0  0  0  0  0  0  0  0  0
    9.2665    2.2864   16.3985 C   0  0  0  0  0  0  0  0  0  0  0  0
    7.3196   -0.4113   18.4499 C   0  0  0  0  0  0  0  0  0  0  0  0
    3.4582    3.1445   22.8540 C   0  0  0  0  0  0  0  0  0  0  0  0
    4.2961    4.0195   22.8770 O   0  0  0  0  0  0  0  0  0  0  0  0
    2.0453    3.2109   23.0763 N   0  0  0  0  0  0  0  0  0  0  0  0
    1.1795    4.3469   23.5138 C   0  0  0  0  0  0  0  0  0  0  0  0
   -0.2034    3.9365   24.0206 C   0  0  0  0  0  0  0  0  0  0  0  0
   -0.9586    3.2717   22.8993 C   0  0  0  0  0  0  0  0  0  0  0  0
   -0.2301    3.5742   21.6134 C   0  0  0  0  0  0  0  0  0  0  0  0
    1.3151    3.4533   21.7497 C   0  0  0  0  0  0  0  0  0  0  0  0
    4.0756    0.2670   24.8867 H   0  0  0  0  0  0  0  0  0  0  0  0
    2.5580    1.1160   24.4149 H   0  0  0  0  0  0  0  0  0  0  0  0
    3.6931    1.9994   25.0356 H   0  0  0  0  0  0  0  0  0  0  0  0
    3.3238    1.1191   21.8624 H   0  0  0  0  0  0  0  0  0  0  0  0
    9.2298   -0.8308   19.7216 H   0  0  0  0  0  0  0  0  0  0  0  0
    7.3923    1.4490   15.9386 H   0  0  0  0  0  0  0  0  0  0  0  0
    8.8302    0.2645   14.2141 H   0  0  0  0  0  0  0  0  0  0  0  0
    8.9723   -0.9502   15.4215 H   0  0  0  0  0  0  0  0  0  0  0  0
   11.1442    0.2509   14.4717 H   0  0  0  0  0  0  0  0  0  0  0  0
   11.0512    0.0779   16.2263 H   0  0  0  0  0  0  0  0  0  0  0  0
   11.3990    2.4645   15.9498 H   0  0  0  0  0  0  0  0  0  0  0  0
   10.3382    2.5139   14.5370 H   0  0  0  0  0  0  0  0  0  0  0  0
    9.5871    2.4526   17.4258 H   0  0  0  0  0  0  0  0  0  0  0  0
    8.7540    3.2012   16.0786 H   0  0  0  0  0  0  0  0  0  0  0  0
    6.3893   -0.8575   17.9842 H   0  0  0  0  0  0  0  0  0  0  0  0
    1.2206    5.2775   22.9179 H   0  0  0  0  0  0  0  0  0  0  0  0
    1.7068    4.6881   24.4198 H   0  0  0  0  0  0  0  0  0  0  0  0
   -0.7393    4.8274   24.3677 H   0  0  0  0  0  0  0  0  0  0  0  0
   -0.1228    3.2560   24.8763 H   0  0  0  0  0  0  0  0  0  0  0  0
   -0.9824    2.1960   23.0597 H   0  0  0  0  0  0  0  0  0  0  0  0
   -1.9999    3.6083   22.8607 H   0  0  0  0  0  0  0  0  0  0  0  0
   -0.6028    2.9590   20.7908 H   0  0  0  0  0  0  0  0  0  0  0  0
   -0.4618    4.6065   21.3142 H   0  0  0  0  0  0  0  0  0  0  0  0
    1.6257    2.6018   21.1375 H   0  0  0  0  0  0  0  0  0  0  0  0
    1.8054    4.2839   21.2083 H   0  0  0  0  0  0  0  0  0  0  0  0
  1  2  1  0
  2  3  1  0
  3  4  1  0
  4  5  2  0
  4  6  1  0
  6  7  1  0
  7  8  2  0
  8  9  1  0
  9 10  1  0
 10 11  1  0
 11 12  1  0
 12 13  1  0
 13 14  1  0
  9 15  1  0
  2 16  1  0
 16 17  2  0
 16 18  1  0
 18 19  1  0
 19 20  1  0
 20 21  1  0
 21 22  1  0
 22 23  1  0
 15  6  2  0
 23 18  1  0
 14 10  1  0
  1 24  1  0
  1 25  1  0
  1 26  1  0
  2 27  1  0
  7 28  1  0
 10 29  1  0
 11 30  1  0
 11 31  1  0
 12 32  1  0
 12 33  1  0
 13 34  1  0
 13 35  1  0
 14 36  1  0
 14 37  1  0
 15 38  1  0
 19 39  1  0
 19 40  1  0
 20 41  1  0
 20 42  1  0
 21 43  1  0
 21 44  1  0
 22 45  1  0
 22 46  1  0
 23 47  1  0
 23 48  1  0
M  END
>  <Energy>  (1131) 
729.29460643318873

>  <compound_id>  (1131) 
8642

>  <target_id>  (1131) 
1

>  <reference_id>  (1131) 
81

>  <inspiration_ids>  (1131) 
[81, 44]

>  <energy_score>  (1131) 
660.657533786899

>  <distance_score>  (1131) 
6.244907538188136

>  <path>  (1131) 
/opt/xchem-fragalysis-2/maxwin/BulkDock/SCRATCH/511016/C8642-P81/C8642-P81.minimised.mol

>  <scratch_subdir>  (1131) 
/opt/xchem-fragalysis-2/maxwin/BulkDock/SCRATCH/511016/C8642-P81

>  <fragmenstein_runtime>  (1131) 
16.55817723274231

>  <fragmenstein_outcome>  (1131) 
too moved

>  <fragmenstein_mode>  (1131) 
expansion

>  <fragmenstein_error>  (1131) 


$$$$
C8642-P44
     RDKit          3D

 48 50  0  0  0  0  0  0  0  0999 V2000
    4.5591   -1.7770   23.3400 C   0  0  0  0  0  0  0  0  0  0  0  0
    4.9908   -0.5723   22.4415 C   0  0  0  0  0  0  0  0  0  0  0  0
    6.1544   -0.9316   20.8642 O   0  0  0  0  0  0  0  0  0  0  0  0
    6.9984   -0.0735   19.5005 C   0  0  0  0  0  0  0  0  0  0  0  0
    6.6965   -0.5318   18.3990 O   0  0  0  0  0  0  0  0  0  0  0  0
    8.0021    1.0318   19.3192 C   0  0  0  0  0  0  0  0  0  0  0  0
    8.7050    0.9640   18.0159 C   0  0  0  0  0  0  0  0  0  0  0  0
    9.2746    2.0685   17.5603 N   0  0  0  0  0  0  0  0  0  0  0  0
    8.8209    2.9780   18.4160 N   0  0  0  0  0  0  0  0  0  0  0  0
    8.9414    4.4024   18.1440 C   0  0  0  0  0  0  0  0  0  0  0  0
    7.5829    5.0515   17.8214 C   0  0  0  0  0  0  0  0  0  0  0  0
    7.9194    6.2227   16.9157 C   0  0  0  0  0  0  0  0  0  0  0  0
    9.0094    5.6533   16.0293 C   0  0  0  0  0  0  0  0  0  0  0  0
    9.8685    4.8262   16.9809 C   0  0  0  0  0  0  0  0  0  0  0  0
    7.9979    2.4120   19.3712 C   0  0  0  0  0  0  0  0  0  0  0  0
    4.9562    0.3998   24.1798 C   0  0  0  0  0  0  0  0  0  0  0  0
    5.9136    0.1561   24.8738 O   0  0  0  0  0  0  0  0  0  0  0  0
    3.7532    1.2360   24.5418 N   0  0  0  0  0  0  0  0  0  0  0  0
    3.3511    1.8887   25.8575 C   0  0  0  0  0  0  0  0  0  0  0  0
    2.0718    2.7192   26.0636 C   0  0  0  0  0  0  0  0  0  0  0  0
    2.1428    3.9805   25.2497 C   0  0  0  0  0  0  0  0  0  0  0  0
    2.7614    3.6015   23.9309 C   0  0  0  0  0  0  0  0  0  0  0  0
    3.9780    2.6827   24.1554 C   0  0  0  0  0  0  0  0  0  0  0  0
    5.3952   -2.4456   23.5350 H   0  0  0  0  0  0  0  0  0  0  0  0
    3.5953   -2.1993   23.0640 H   0  0  0  0  0  0  0  0  0  0  0  0
    4.3017   -1.5451   24.3812 H   0  0  0  0  0  0  0  0  0  0  0  0
    4.4651    0.1008   21.7501 H   0  0  0  0  0  0  0  0  0  0  0  0
    8.6889    0.1491   17.3080 H   0  0  0  0  0  0  0  0  0  0  0  0
    9.3403    4.8347   19.0717 H   0  0  0  0  0  0  0  0  0  0  0  0
    7.0573    5.3765   18.7252 H   0  0  0  0  0  0  0  0  0  0  0  0
    6.9271    4.3504   17.2890 H   0  0  0  0  0  0  0  0  0  0  0  0
    8.3036    7.0636   17.5047 H   0  0  0  0  0  0  0  0  0  0  0  0
    7.0540    6.5682   16.3434 H   0  0  0  0  0  0  0  0  0  0  0  0
    8.5703    5.0025   15.2636 H   0  0  0  0  0  0  0  0  0  0  0  0
    9.5855    6.4326   15.5222 H   0  0  0  0  0  0  0  0  0  0  0  0
   10.3461    4.0049   16.4405 H   0  0  0  0  0  0  0  0  0  0  0  0
   10.6732    5.4559   17.3809 H   0  0  0  0  0  0  0  0  0  0  0  0
    7.2998    3.0849   19.8037 H   0  0  0  0  0  0  0  0  0  0  0  0
    3.1804    0.9917   26.4746 H   0  0  0  0  0  0  0  0  0  0  0  0
    4.2209    2.3217   26.3841 H   0  0  0  0  0  0  0  0  0  0  0  0
    1.9718    2.9734   27.1258 H   0  0  0  0  0  0  0  0  0  0  0  0
    1.1682    2.1668   25.8092 H   0  0  0  0  0  0  0  0  0  0  0  0
    1.1566    4.4372   25.1203 H   0  0  0  0  0  0  0  0  0  0  0  0
    2.7796    4.7145   25.7584 H   0  0  0  0  0  0  0  0  0  0  0  0
    2.0263    3.1031   23.2961 H   0  0  0  0  0  0  0  0  0  0  0  0
    3.0755    4.5084   23.4009 H   0  0  0  0  0  0  0  0  0  0  0  0
    4.8061    3.1707   24.6996 H   0  0  0  0  0  0  0  0  0  0  0  0
    4.3787    2.6116   23.1677 H   0  0  0  0  0  0  0  0  0  0  0  0
  1  2  1  0
  2  3  1  0
  3  4  1  0
  4  5  2  0
  4  6  1  0
  6  7  1  0
  7  8  2  0
  8  9  1  0
  9 10  1  0
 10 11  1  0
 11 12  1  0
 12 13  1  0
 13 14  1  0
  9 15  1  0
  2 16  1  0
 16 17  2  0
 16 18  1  0
 18 19  1  0
 19 20  1  0
 20 21  1  0
 21 22  1  0
 22 23  1  0
 15  6  2  0
 23 18  1  0
 14 10  1  0
  1 24  1  0
  1 25  1  0
  1 26  1  0
  2 27  1  0
  7 28  1  0
 10 29  1  0
 11 30  1  0
 11 31  1  0
 12 32  1  0
 12 33  1  0
 13 34  1  0
 13 35  1  0
 14 36  1  0
 14 37  1  0
 15 38  1  0
 19 39  1  0
 19 40  1  0
 20 41  1  0
 20 42  1  0
 21 43  1  0
 21 44  1  0
 22 45  1  0
 22 46  1  0
 23 47  1  0
 23 48  1  0
M  END
>  <Energy>  (1132) 
434.06119106996323

>  <compound_id>  (1132) 
8642

>  <target_id>  (1132) 
1

>  <reference_id>  (1132) 
44

>  <inspiration_ids>  (1132) 
[81, 44]

>  <energy_score>  (1132) 
365.424118423675

>  <distance_score>  (1132) 
6.306581537674473

>  <path>  (1132) 
/opt/xchem-fragalysis-2/maxwin/BulkDock/SCRATCH/511016/C8642-P44/C8642-P44.minimised.mol

>  <scratch_subdir>  (1132) 
/opt/xchem-fragalysis-2/maxwin/BulkDock/SCRATCH/511016/C8642-P44

>  <fragmenstein_runtime>  (1132) 
14.285861492156982

>  <fragmenstein_outcome>  (1132) 
too moved

>  <fragmenstein_mode>  (1132) 
expansion

>  <fragmenstein_error>  (1132) 


$$$$
C8643-P81
     RDKit          3D

 50 52  0  0  0  0  0  0  0  0999 V2000
    3.4098   -2.5940   23.8919 C   0  0  0  0  0  0  0  0  0  0  0  0
    4.8106   -1.9290   23.4657 C   0  0  0  0  0  0  0  0  0  0  0  0
    5.7882   -2.6705   21.7407 C   0  0  0  0  0  0  0  0  0  0  0  0
    7.6502   -3.6673   21.6820 C   0  0  0  0  0  0  0  0  0  0  0  0
    7.6747   -4.4573   22.6117 O   0  0  0  0  0  0  0  0  0  0  0  0
    9.3132   -3.4708   20.6552 N   0  0  0  0  0  0  0  0  0  0  0  0
   11.1670   -4.2111   20.9534 C   0  0  0  0  0  0  0  0  0  0  0  0
   11.9998   -4.1146   22.1544 C   0  0  0  0  0  0  0  0  0  0  0  0
   13.0687   -5.0115   22.0418 C   0  0  0  0  0  0  0  0  0  0  0  0
   13.0480   -5.6024   20.8571 N   0  0  0  0  0  0  0  0  0  0  0  0
   12.3452   -4.6888   20.1121 N   0  0  0  0  0  0  0  0  0  0  0  0
   13.1802   -4.1613   19.0311 C   0  0  0  0  0  0  0  0  0  0  0  0
   12.7561   -3.7232   17.6254 C   0  0  0  0  0  0  0  0  0  0  0  0
   14.0742   -3.2296   17.0333 C   0  0  0  0  0  0  0  0  0  0  0  0
   14.7025   -2.4402   18.1766 C   0  0  0  0  0  0  0  0  0  0  0  0
   14.2387   -3.1267   19.4652 C   0  0  0  0  0  0  0  0  0  0  0  0
    4.5948   -1.0876   25.0820 N   0  0  0  0  0  0  0  0  0  0  0  0
    4.4938   -1.8450   26.3530 C   0  0  0  0  0  0  0  0  0  0  0  0
    3.3806   -1.4842   27.3589 C   0  0  0  0  0  0  0  0  0  0  0  0
    3.4470   -0.0418   27.7791 C   0  0  0  0  0  0  0  0  0  0  0  0
    3.2530    0.7891   26.5424 C   0  0  0  0  0  0  0  0  0  0  0  0
    4.1494    0.3177   25.3685 C   0  0  0  0  0  0  0  0  0  0  0  0
    2.7470   -1.9092   24.4138 H   0  0  0  0  0  0  0  0  0  0  0  0
    3.5350   -3.3394   24.6632 H   0  0  0  0  0  0  0  0  0  0  0  0
    2.8026   -3.0155   23.0987 H   0  0  0  0  0  0  0  0  0  0  0  0
    5.6160   -2.2917   24.1089 H   0  0  0  0  0  0  0  0  0  0  0  0
    5.8684   -1.6029   21.5093 H   0  0  0  0  0  0  0  0  0  0  0  0
    6.1303   -3.0694   22.6905 H   0  0  0  0  0  0  0  0  0  0  0  0
    9.1591   -2.9145   19.9392 H   0  0  0  0  0  0  0  0  0  0  0  0
   11.7588   -3.5893   23.0689 H   0  0  0  0  0  0  0  0  0  0  0  0
   13.7900   -5.3095   22.7909 H   0  0  0  0  0  0  0  0  0  0  0  0
   13.7844   -5.0520   18.7862 H   0  0  0  0  0  0  0  0  0  0  0  0
   12.3216   -4.5259   17.0268 H   0  0  0  0  0  0  0  0  0  0  0  0
   12.0785   -2.8794   17.6072 H   0  0  0  0  0  0  0  0  0  0  0  0
   13.9252   -2.6159   16.1400 H   0  0  0  0  0  0  0  0  0  0  0  0
   14.7126   -4.0783   16.7608 H   0  0  0  0  0  0  0  0  0  0  0  0
   15.7935   -2.4088   18.0976 H   0  0  0  0  0  0  0  0  0  0  0  0
   14.3412   -1.4054   18.1595 H   0  0  0  0  0  0  0  0  0  0  0  0
   13.8537   -2.3945   20.1794 H   0  0  0  0  0  0  0  0  0  0  0  0
   15.0836   -3.6260   19.9549 H   0  0  0  0  0  0  0  0  0  0  0  0
    4.2676   -2.8823   26.2112 H   0  0  0  0  0  0  0  0  0  0  0  0
    5.4590   -1.7587   26.8662 H   0  0  0  0  0  0  0  0  0  0  0  0
    2.3989   -1.7099   26.9246 H   0  0  0  0  0  0  0  0  0  0  0  0
    3.4845   -2.1230   28.2446 H   0  0  0  0  0  0  0  0  0  0  0  0
    2.6738    0.1854   28.5207 H   0  0  0  0  0  0  0  0  0  0  0  0
    4.4169    0.1769   28.2412 H   0  0  0  0  0  0  0  0  0  0  0  0
    3.5021    1.8329   26.7787 H   0  0  0  0  0  0  0  0  0  0  0  0
    2.1991    0.8166   26.2962 H   0  0  0  0  0  0  0  0  0  0  0  0
    3.8434    0.9013   24.5072 H   0  0  0  0  0  0  0  0  0  0  0  0
    5.0636    0.7591   25.7577 H   0  0  0  0  0  0  0  0  0  0  0  0
  1  2  1  0
  2  3  1  0
  3  4  1  0
  4  5  2  0
  4  6  1  0
  6  7  1  0
  7  8  2  0
  8  9  1  0
  9 10  2  0
 10 11  1  0
 11 12  1  0
 12 13  1  0
 13 14  1  0
 14 15  1  0
 15 16  1  0
  2 17  1  0
 17 18  1  0
 18 19  1  0
 19 20  1  0
 20 21  1  0
 21 22  1  0
 11  7  1  0
 16 12  1  0
 22 17  1  0
  1 23  1  0
  1 24  1  0
  1 25  1  0
  2 26  1  0
  3 27  1  0
  3 28  1  0
  6 29  1  0
  8 30  1  0
  9 31  1  0
 12 32  1  0
 13 33  1  0
 13 34  1  0
 14 35  1  0
 14 36  1  0
 15 37  1  0
 15 38  1  0
 16 39  1  0
 16 40  1  0
 18 41  1  0
 18 42  1  0
 19 43  1  0
 19 44  1  0
 20 45  1  0
 20 46  1  0
 21 47  1  0
 21 48  1  0
 22 49  1  0
 22 50  1  0
M  END
>  <Energy>  (1133) 
775.63033077223429

>  <compound_id>  (1133) 
8643

>  <target_id>  (1133) 
1

>  <reference_id>  (1133) 
81

>  <inspiration_ids>  (1133) 
[81, 44]

>  <energy_score>  (1133) 
673.4237210216489

>  <distance_score>  (1133) 
7.278084720733292

>  <path>  (1133) 
/opt/xchem-fragalysis-2/maxwin/BulkDock/SCRATCH/511016/C8643-P81/C8643-P81.minimised.mol

>  <scratch_subdir>  (1133) 
/opt/xchem-fragalysis-2/maxwin/BulkDock/SCRATCH/511016/C8643-P81

>  <fragmenstein_runtime>  (1133) 
12.654358863830566

>  <fragmenstein_outcome>  (1133) 
too moved

>  <fragmenstein_mode>  (1133) 
expansion

>  <fragmenstein_error>  (1133) 


$$$$
C8643-P44
     RDKit          3D

 50 52  0  0  0  0  0  0  0  0999 V2000
    4.6450   -1.8217   23.2309 C   0  0  0  0  0  0  0  0  0  0  0  0
    5.0092   -0.5957   22.4543 C   0  0  0  0  0  0  0  0  0  0  0  0
    6.2301   -0.9241   20.7644 C   0  0  0  0  0  0  0  0  0  0  0  0
    7.1856    0.3866   19.5475 C   0  0  0  0  0  0  0  0  0  0  0  0
    7.6868    1.3502   20.0286 O   0  0  0  0  0  0  0  0  0  0  0  0
    7.2174   -0.0742   18.2677 N   0  0  0  0  0  0  0  0  0  0  0  0
    7.9487    0.3913   17.0959 C   0  0  0  0  0  0  0  0  0  0  0  0
    8.1266   -0.3124   15.9029 C   0  0  0  0  0  0  0  0  0  0  0  0
    9.1887    0.2917   15.2293 C   0  0  0  0  0  0  0  0  0  0  0  0
    9.6376    1.3460   15.8892 N   0  0  0  0  0  0  0  0  0  0  0  0
    8.7482    1.5418   16.9069 N   0  0  0  0  0  0  0  0  0  0  0  0
    8.8249    2.8494   17.5751 C   0  0  0  0  0  0  0  0  0  0  0  0
    7.5090    3.6428   17.6754 C   0  0  0  0  0  0  0  0  0  0  0  0
    7.7612    5.0701   17.2039 C   0  0  0  0  0  0  0  0  0  0  0  0
    8.8366    4.8824   16.1637 C   0  0  0  0  0  0  0  0  0  0  0  0
    9.7517    3.9019   16.8734 C   0  0  0  0  0  0  0  0  0  0  0  0
    4.9266    0.4867   23.9384 N   0  0  0  0  0  0  0  0  0  0  0  0
    4.8859   -0.1191   25.2904 C   0  0  0  0  0  0  0  0  0  0  0  0
    4.7405    0.8609   26.4592 C   0  0  0  0  0  0  0  0  0  0  0  0
    3.3766    1.5096   26.4164 C   0  0  0  0  0  0  0  0  0  0  0  0
    3.2141    2.2696   25.1221 C   0  0  0  0  0  0  0  0  0  0  0  0
    4.1096    1.8086   23.9443 C   0  0  0  0  0  0  0  0  0  0  0  0
    5.1486   -2.0726   24.1674 H   0  0  0  0  0  0  0  0  0  0  0  0
    5.1124   -2.5213   22.5715 H   0  0  0  0  0  0  0  0  0  0  0  0
    3.5844   -2.0063   23.3546 H   0  0  0  0  0  0  0  0  0  0  0  0
    4.4540    0.0086   21.7328 H   0  0  0  0  0  0  0  0  0  0  0  0
    7.1773   -1.3858   20.8395 H   0  0  0  0  0  0  0  0  0  0  0  0
    5.8588   -1.9813   20.5593 H   0  0  0  0  0  0  0  0  0  0  0  0
    6.6038   -0.8737   18.2005 H   0  0  0  0  0  0  0  0  0  0  0  0
    7.6193   -1.2033   15.5694 H   0  0  0  0  0  0  0  0  0  0  0  0
    9.6582    0.0046   14.2969 H   0  0  0  0  0  0  0  0  0  0  0  0
    9.2304    2.6376   18.5686 H   0  0  0  0  0  0  0  0  0  0  0  0
    7.1581    3.6567   18.7054 H   0  0  0  0  0  0  0  0  0  0  0  0
    6.7412    3.2529   17.0138 H   0  0  0  0  0  0  0  0  0  0  0  0
    6.8603    5.5399   16.7986 H   0  0  0  0  0  0  0  0  0  0  0  0
    8.1237    5.6880   18.0342 H   0  0  0  0  0  0  0  0  0  0  0  0
    8.4297    4.4430   15.2458 H   0  0  0  0  0  0  0  0  0  0  0  0
    9.3420    5.8189   15.9123 H   0  0  0  0  0  0  0  0  0  0  0  0
   10.2818    4.4704   17.6493 H   0  0  0  0  0  0  0  0  0  0  0  0
   10.5060    3.5066   16.1895 H   0  0  0  0  0  0  0  0  0  0  0  0
    4.0425   -0.8069   25.3804 H   0  0  0  0  0  0  0  0  0  0  0  0
    5.8106   -0.6664   25.4940 H   0  0  0  0  0  0  0  0  0  0  0  0
    4.8497    0.3144   27.4035 H   0  0  0  0  0  0  0  0  0  0  0  0
    5.5377    1.6139   26.4324 H   0  0  0  0  0  0  0  0  0  0  0  0
    2.6016    0.7405   26.5074 H   0  0  0  0  0  0  0  0  0  0  0  0
    3.2447    2.1826   27.2712 H   0  0  0  0  0  0  0  0  0  0  0  0
    3.4712    3.3187   25.3346 H   0  0  0  0  0  0  0  0  0  0  0  0
    2.1665    2.3267   24.8218 H   0  0  0  0  0  0  0  0  0  0  0  0
    3.5639    2.0035   23.0215 H   0  0  0  0  0  0  0  0  0  0  0  0
    4.8160    2.6480   23.9559 H   0  0  0  0  0  0  0  0  0  0  0  0
  1  2  1  0
  2  3  1  0
  3  4  1  0
  4  5  2  0
  4  6  1  0
  6  7  1  0
  7  8  2  0
  8  9  1  0
  9 10  2  0
 10 11  1  0
 11 12  1  0
 12 13  1  0
 13 14  1  0
 14 15  1  0
 15 16  1  0
  2 17  1  0
 17 18  1  0
 18 19  1  0
 19 20  1  0
 20 21  1  0
 21 22  1  0
 11  7  1  0
 16 12  1  0
 22 17  1  0
  1 23  1  0
  1 24  1  0
  1 25  1  0
  2 26  1  0
  3 27  1  0
  3 28  1  0
  6 29  1  0
  8 30  1  0
  9 31  1  0
 12 32  1  0
 13 33  1  0
 13 34  1  0
 14 35  1  0
 14 36  1  0
 15 37  1  0
 15 38  1  0
 16 39  1  0
 16 40  1  0
 18 41  1  0
 18 42  1  0
 19 43  1  0
 19 44  1  0
 20 45  1  0
 20 46  1  0
 21 47  1  0
 21 48  1  0
 22 49  1  0
 22 50  1  0
M  END
>  <Energy>  (1134) 
330.15425838873381

>  <compound_id>  (1134) 
8643

>  <target_id>  (1134) 
1

>  <reference_id>  (1134) 
44

>  <inspiration_ids>  (1134) 
[81, 44]

>  <energy_score>  (1134) 
227.94764863814487

>  <distance_score>  (1134) 
6.651313736935067

>  <path>  (1134) 
/opt/xchem-fragalysis-2/maxwin/BulkDock/SCRATCH/511016/C8643-P44/C8643-P44.minimised.mol

>  <scratch_subdir>  (1134) 
/opt/xchem-fragalysis-2/maxwin/BulkDock/SCRATCH/511016/C8643-P44

>  <fragmenstein_runtime>  (1134) 
9.266915082931519

>  <fragmenstein_outcome>  (1134) 
too moved

>  <fragmenstein_mode>  (1134) 
expansion

>  <fragmenstein_error>  (1134) 


$$$$
C8644-P81
     RDKit          3D

 57 59  0  0  0  0  0  0  0  0999 V2000
    3.1878   -2.4881   24.7089 C   0  0  0  0  0  0  0  0  0  0  0  0
    4.4206   -2.2581   25.4331 C   0  0  0  0  0  0  0  0  0  0  0  0
    5.7604   -2.6221   24.4780 C   0  0  0  0  0  0  0  0  0  0  0  0
    6.5003   -3.3273   22.8630 N   0  0  0  0  0  0  0  0  0  0  0  0
    7.5739   -4.6298   22.5789 C   0  0  0  0  0  0  0  0  0  0  0  0
    7.9631   -5.4029   23.4059 O   0  0  0  0  0  0  0  0  0  0  0  0
    8.4277   -4.7537   20.6578 C   0  0  0  0  0  0  0  0  0  0  0  0
    7.6293   -4.7206   19.7586 O   0  0  0  0  0  0  0  0  0  0  0  0
   10.4177   -5.0611   20.6201 N   0  0  0  0  0  0  0  0  0  0  0  0
   11.6050   -5.2506   19.2990 C   0  0  0  0  0  0  0  0  0  0  0  0
   11.9303   -4.6209   17.9541 C   0  0  0  0  0  0  0  0  0  0  0  0
   13.3009   -4.3926   17.8627 C   0  0  0  0  0  0  0  0  0  0  0  0
   13.9299   -4.7971   18.9479 N   0  0  0  0  0  0  0  0  0  0  0  0
   12.9665   -5.2013   19.8152 N   0  0  0  0  0  0  0  0  0  0  0  0
   13.4135   -5.5632   21.1575 C   0  0  0  0  0  0  0  0  0  0  0  0
   13.4849   -4.3443   22.0894 C   0  0  0  0  0  0  0  0  0  0  0  0
   14.7257   -4.5559   22.9433 C   0  0  0  0  0  0  0  0  0  0  0  0
   15.6928   -5.2217   21.9835 C   0  0  0  0  0  0  0  0  0  0  0  0
   14.8144   -6.2207   21.2430 C   0  0  0  0  0  0  0  0  0  0  0  0
    4.4230   -0.8465   26.1653 C   0  0  0  0  0  0  0  0  0  0  0  0
    3.6124   -0.5672   27.3852 N   0  0  0  0  0  0  0  0  0  0  0  0
    2.3449   -1.2601   27.5738 C   0  0  0  0  0  0  0  0  0  0  0  0
    1.4087   -0.5536   28.5607 C   0  0  0  0  0  0  0  0  0  0  0  0
    1.0780    0.8664   28.1005 C   0  0  0  0  0  0  0  0  0  0  0  0
    2.2670    1.5530   27.4291 C   0  0  0  0  0  0  0  0  0  0  0  0
    3.5931    0.8574   27.7400 C   0  0  0  0  0  0  0  0  0  0  0  0
    2.5906   -1.6073   24.8378 H   0  0  0  0  0  0  0  0  0  0  0  0
    3.2868   -2.6742   23.6513 H   0  0  0  0  0  0  0  0  0  0  0  0
    2.7238   -3.3392   25.1882 H   0  0  0  0  0  0  0  0  0  0  0  0
    4.3416   -2.9000   26.3131 H   0  0  0  0  0  0  0  0  0  0  0  0
    6.5755   -2.3627   25.1895 H   0  0  0  0  0  0  0  0  0  0  0  0
    5.4891   -1.7567   23.8691 H   0  0  0  0  0  0  0  0  0  0  0  0
    6.2489   -2.8905   21.9564 H   0  0  0  0  0  0  0  0  0  0  0  0
   10.8446   -4.9420   21.5229 H   0  0  0  0  0  0  0  0  0  0  0  0
   11.2355   -4.3829   17.1648 H   0  0  0  0  0  0  0  0  0  0  0  0
   13.8641   -3.9704   17.0409 H   0  0  0  0  0  0  0  0  0  0  0  0
   12.7116   -6.3131   21.5228 H   0  0  0  0  0  0  0  0  0  0  0  0
   13.5999   -3.4187   21.5134 H   0  0  0  0  0  0  0  0  0  0  0  0
   12.5912   -4.2411   22.7108 H   0  0  0  0  0  0  0  0  0  0  0  0
   14.4993   -5.2237   23.7829 H   0  0  0  0  0  0  0  0  0  0  0  0
   15.1167   -3.6174   23.3464 H   0  0  0  0  0  0  0  0  0  0  0  0
   16.1028   -4.4850   21.2827 H   0  0  0  0  0  0  0  0  0  0  0  0
   16.5265   -5.7056   22.5000 H   0  0  0  0  0  0  0  0  0  0  0  0
   14.7377   -7.1364   21.8439 H   0  0  0  0  0  0  0  0  0  0  0  0
   15.2534   -6.5080   20.2835 H   0  0  0  0  0  0  0  0  0  0  0  0
    5.4495   -0.6838   26.5075 H   0  0  0  0  0  0  0  0  0  0  0  0
    4.1866   -0.0811   25.4195 H   0  0  0  0  0  0  0  0  0  0  0  0
    1.7914   -1.3408   26.6496 H   0  0  0  0  0  0  0  0  0  0  0  0
    2.5384   -2.2789   27.9273 H   0  0  0  0  0  0  0  0  0  0  0  0
    1.8801   -0.5198   29.5513 H   0  0  0  0  0  0  0  0  0  0  0  0
    0.4819   -1.1274   28.6770 H   0  0  0  0  0  0  0  0  0  0  0  0
    0.2344    0.8462   27.4002 H   0  0  0  0  0  0  0  0  0  0  0  0
    0.7440    1.4522   28.9650 H   0  0  0  0  0  0  0  0  0  0  0  0
    2.1169    1.5746   26.3438 H   0  0  0  0  0  0  0  0  0  0  0  0
    2.3121    2.6007   27.7486 H   0  0  0  0  0  0  0  0  0  0  0  0
    4.4144    1.4022   27.2574 H   0  0  0  0  0  0  0  0  0  0  0  0
    3.7891    0.9396   28.8170 H   0  0  0  0  0  0  0  0  0  0  0  0
  1  2  1  0
  2  3  1  0
  3  4  1  0
  4  5  1  0
  5  6  2  0
  5  7  1  0
  7  8  2  0
  7  9  1  0
  9 10  1  0
 10 11  2  0
 11 12  1  0
 12 13  2  0
 13 14  1  0
 14 15  1  0
 15 16  1  0
 16 17  1  0
 17 18  1  0
 18 19  1  0
  2 20  1  0
 20 21  1  0
 21 22  1  0
 22 23  1  0
 23 24  1  0
 24 25  1  0
 25 26  1  0
 14 10  1  0
 19 15  1  0
 26 21  1  0
  1 27  1  0
  1 28  1  0
  1 29  1  0
  2 30  1  0
  3 31  1  0
  3 32  1  0
  4 33  1  0
  9 34  1  0
 11 35  1  0
 12 36  1  0
 15 37  1  0
 16 38  1  0
 16 39  1  0
 17 40  1  0
 17 41  1  0
 18 42  1  0
 18 43  1  0
 19 44  1  0
 19 45  1  0
 20 46  1  0
 20 47  1  0
 22 48  1  0
 22 49  1  0
 23 50  1  0
 23 51  1  0
 24 52  1  0
 24 53  1  0
 25 54  1  0
 25 55  1  0
 26 56  1  0
 26 57  1  0
M  END
>  <Energy>  (1135) 
533.20698612100034

>  <compound_id>  (1135) 
8644

>  <target_id>  (1135) 
1

>  <reference_id>  (1135) 
81

>  <inspiration_ids>  (1135) 
[81, 44]

>  <energy_score>  (1135) 
382.13314953201905

>  <distance_score>  (1135) 
5.397928535367923

>  <path>  (1135) 
/opt/xchem-fragalysis-2/maxwin/BulkDock/SCRATCH/511016/C8644-P81/C8644-P81.minimised.mol

>  <scratch_subdir>  (1135) 
/opt/xchem-fragalysis-2/maxwin/BulkDock/SCRATCH/511016/C8644-P81

>  <fragmenstein_runtime>  (1135) 
11.436688661575317

>  <fragmenstein_outcome>  (1135) 
too moved

>  <fragmenstein_mode>  (1135) 
expansion

>  <fragmenstein_error>  (1135) 


$$$$
C8644-P44
     RDKit          3D

 57 59  0  0  0  0  0  0  0  0999 V2000
    5.6493   -1.6864   25.9096 C   0  0  0  0  0  0  0  0  0  0  0  0
    4.5358   -0.9050   25.1171 C   0  0  0  0  0  0  0  0  0  0  0  0
    4.2748   -1.7802   23.6035 C   0  0  0  0  0  0  0  0  0  0  0  0
    4.9817   -1.0996   22.4616 N   0  0  0  0  0  0  0  0  0  0  0  0
    5.7823   -1.8013   20.8875 C   0  0  0  0  0  0  0  0  0  0  0  0
    5.7019   -2.9481   20.5961 O   0  0  0  0  0  0  0  0  0  0  0  0
    6.8734   -0.4129   19.9367 C   0  0  0  0  0  0  0  0  0  0  0  0
    6.4217    0.5547   20.1020 O   0  0  0  0  0  0  0  0  0  0  0  0
    8.0946   -0.4378   18.9725 N   0  0  0  0  0  0  0  0  0  0  0  0
    8.7064    0.5883   18.1540 C   0  0  0  0  0  0  0  0  0  0  0  0
    8.4950    1.9263   18.4834 C   0  0  0  0  0  0  0  0  0  0  0  0
    9.0866    2.7144   17.5079 C   0  0  0  0  0  0  0  0  0  0  0  0
    9.6820    1.9720   16.5941 N   0  0  0  0  0  0  0  0  0  0  0  0
    9.3432    0.6939   16.8975 N   0  0  0  0  0  0  0  0  0  0  0  0
    9.5509   -0.1591   15.7488 C   0  0  0  0  0  0  0  0  0  0  0  0
   10.6216   -1.2427   15.7658 C   0  0  0  0  0  0  0  0  0  0  0  0
   10.1203   -2.2971   14.8123 C   0  0  0  0  0  0  0  0  0  0  0  0
    8.5946   -2.1211   14.7770 C   0  0  0  0  0  0  0  0  0  0  0  0
    8.2822   -0.7107   15.1646 C   0  0  0  0  0  0  0  0  0  0  0  0
    3.5487   -0.6275   26.3481 C   0  0  0  0  0  0  0  0  0  0  0  0
    2.5954    0.4831   26.3723 N   0  0  0  0  0  0  0  0  0  0  0  0
    1.7142    0.4308   27.5483 C   0  0  0  0  0  0  0  0  0  0  0  0
    0.5392    1.4124   27.4218 C   0  0  0  0  0  0  0  0  0  0  0  0
    0.9217    2.7309   26.7497 C   0  0  0  0  0  0  0  0  0  0  0  0
    2.4229    2.9654   26.8285 C   0  0  0  0  0  0  0  0  0  0  0  0
    3.2274    1.8024   26.2194 C   0  0  0  0  0  0  0  0  0  0  0  0
    5.2530   -2.6367   26.2865 H   0  0  0  0  0  0  0  0  0  0  0  0
    6.5351   -1.9141   25.3383 H   0  0  0  0  0  0  0  0  0  0  0  0
    6.0218   -1.1052   26.7617 H   0  0  0  0  0  0  0  0  0  0  0  0
    4.9586    0.0623   24.8205 H   0  0  0  0  0  0  0  0  0  0  0  0
    3.3017   -2.1678   23.3545 H   0  0  0  0  0  0  0  0  0  0  0  0
    5.0389   -2.4986   23.8693 H   0  0  0  0  0  0  0  0  0  0  0  0
    5.0851   -0.1282   22.4785 H   0  0  0  0  0  0  0  0  0  0  0  0
    8.4497   -1.3391   18.9812 H   0  0  0  0  0  0  0  0  0  0  0  0
    7.9583    2.2933   19.3433 H   0  0  0  0  0  0  0  0  0  0  0  0
    9.1420    3.7920   17.4410 H   0  0  0  0  0  0  0  0  0  0  0  0
    9.9206    0.5202   14.9595 H   0  0  0  0  0  0  0  0  0  0  0  0
   11.5880   -0.8461   15.4305 H   0  0  0  0  0  0  0  0  0  0  0  0
   10.8149   -1.6974   16.7244 H   0  0  0  0  0  0  0  0  0  0  0  0
   10.6282   -2.1494   13.8613 H   0  0  0  0  0  0  0  0  0  0  0  0
   10.4164   -3.3038   15.1205 H   0  0  0  0  0  0  0  0  0  0  0  0
    8.0957   -2.3227   13.8370 H   0  0  0  0  0  0  0  0  0  0  0  0
    8.1020   -2.8177   15.4315 H   0  0  0  0  0  0  0  0  0  0  0  0
    8.0615   -0.1559   14.2524 H   0  0  0  0  0  0  0  0  0  0  0  0
    7.4090   -0.6362   15.8126 H   0  0  0  0  0  0  0  0  0  0  0  0
    4.1757   -0.4309   27.2316 H   0  0  0  0  0  0  0  0  0  0  0  0
    3.0624   -1.5692   26.6252 H   0  0  0  0  0  0  0  0  0  0  0  0
    1.2933   -0.5742   27.6752 H   0  0  0  0  0  0  0  0  0  0  0  0
    2.2856    0.6476   28.4607 H   0  0  0  0  0  0  0  0  0  0  0  0
    0.1480    1.6146   28.4266 H   0  0  0  0  0  0  0  0  0  0  0  0
   -0.2832    0.9520   26.8618 H   0  0  0  0  0  0  0  0  0  0  0  0
    0.6139    2.7116   25.6975 H   0  0  0  0  0  0  0  0  0  0  0  0
    0.3783    3.5603   27.2161 H   0  0  0  0  0  0  0  0  0  0  0  0
    2.6851    3.8993   26.3184 H   0  0  0  0  0  0  0  0  0  0  0  0
    2.7083    3.0900   27.8812 H   0  0  0  0  0  0  0  0  0  0  0  0
    3.3632    1.9904   25.1475 H   0  0  0  0  0  0  0  0  0  0  0  0
    4.2271    1.8217   26.6723 H   0  0  0  0  0  0  0  0  0  0  0  0
  1  2  1  0
  2  3  1  0
  3  4  1  0
  4  5  1  0
  5  6  2  0
  5  7  1  0
  7  8  2  0
  7  9  1  0
  9 10  1  0
 10 11  2  0
 11 12  1  0
 12 13  2  0
 13 14  1  0
 14 15  1  0
 15 16  1  0
 16 17  1  0
 17 18  1  0
 18 19  1  0
  2 20  1  0
 20 21  1  0
 21 22  1  0
 22 23  1  0
 23 24  1  0
 24 25  1  0
 25 26  1  0
 14 10  1  0
 19 15  1  0
 26 21  1  0
  1 27  1  0
  1 28  1  0
  1 29  1  0
  2 30  1  0
  3 31  1  0
  3 32  1  0
  4 33  1  0
  9 34  1  0
 11 35  1  0
 12 36  1  0
 15 37  1  0
 16 38  1  0
 16 39  1  0
 17 40  1  0
 17 41  1  0
 18 42  1  0
 18 43  1  0
 19 44  1  0
 19 45  1  0
 20 46  1  0
 20 47  1  0
 22 48  1  0
 22 49  1  0
 23 50  1  0
 23 51  1  0
 24 52  1  0
 24 53  1  0
 25 54  1  0
 25 55  1  0
 26 56  1  0
 26 57  1  0
M  END
>  <Energy>  (1136) 
347.78087083288199

>  <compound_id>  (1136) 
8644

>  <target_id>  (1136) 
1

>  <reference_id>  (1136) 
44

>  <inspiration_ids>  (1136) 
[81, 44]

>  <energy_score>  (1136) 
196.70703424391058

>  <distance_score>  (1136) 
4.8533589704123825

>  <path>  (1136) 
/opt/xchem-fragalysis-2/maxwin/BulkDock/SCRATCH/511016/C8644-P44/C8644-P44.minimised.mol

>  <scratch_subdir>  (1136) 
/opt/xchem-fragalysis-2/maxwin/BulkDock/SCRATCH/511016/C8644-P44

>  <fragmenstein_runtime>  (1136) 
10.751679420471191

>  <fragmenstein_outcome>  (1136) 
too moved

>  <fragmenstein_mode>  (1136) 
expansion

>  <fragmenstein_error>  (1136) 


$$$$
C8645-P81
     RDKit          3D

 55 57  0  0  0  0  0  0  0  0999 V2000
    5.6038   -1.6407   25.8234 C   0  0  0  0  0  0  0  0  0  0  0  0
    4.7083   -1.2141   24.5501 C   0  0  0  0  0  0  0  0  0  0  0  0
    3.5784   -2.2863   24.6167 C   0  0  0  0  0  0  0  0  0  0  0  0
    5.4417   -1.1953   22.6435 C   0  0  0  0  0  0  0  0  0  0  0  0
    6.5286   -1.0490   21.0457 N   0  0  0  0  0  0  0  0  0  0  0  0
    7.3536    0.2582   20.3551 C   0  0  0  0  0  0  0  0  0  0  0  0
    7.5223    1.3756   20.7775 O   0  0  0  0  0  0  0  0  0  0  0  0
    7.7353   -0.3818   18.9186 N   0  0  0  0  0  0  0  0  0  0  0  0
    8.4001    0.3712   17.4764 C   0  0  0  0  0  0  0  0  0  0  0  0
    8.2639    1.7919   17.3545 C   0  0  0  0  0  0  0  0  0  0  0  0
    9.0333    2.3061   16.3530 C   0  0  0  0  0  0  0  0  0  0  0  0
    9.6674    1.3412   15.7525 N   0  0  0  0  0  0  0  0  0  0  0  0
    9.3149    0.1491   16.3261 N   0  0  0  0  0  0  0  0  0  0  0  0
   10.0836   -0.9159   15.6198 C   0  0  0  0  0  0  0  0  0  0  0  0
   10.7419   -0.3856   14.2854 C   0  0  0  0  0  0  0  0  0  0  0  0
   11.7769   -1.4252   13.8922 C   0  0  0  0  0  0  0  0  0  0  0  0
   12.4944   -1.6263   15.1943 C   0  0  0  0  0  0  0  0  0  0  0  0
   11.3954   -1.4833   16.2457 C   0  0  0  0  0  0  0  0  0  0  0  0
    3.9392    0.0207   25.4715 N   0  0  0  0  0  0  0  0  0  0  0  0
    3.5143   -0.2717   26.8765 C   0  0  0  0  0  0  0  0  0  0  0  0
    2.2667    0.4411   27.4384 C   0  0  0  0  0  0  0  0  0  0  0  0
    2.1918    1.9262   27.1194 C   0  0  0  0  0  0  0  0  0  0  0  0
    3.2276    2.3280   26.0820 C   0  0  0  0  0  0  0  0  0  0  0  0
    3.3460    1.2551   24.9796 C   0  0  0  0  0  0  0  0  0  0  0  0
    5.9414   -0.8049   26.4633 H   0  0  0  0  0  0  0  0  0  0  0  0
    6.5409   -2.1177   25.5561 H   0  0  0  0  0  0  0  0  0  0  0  0
    5.0488   -2.2205   26.5670 H   0  0  0  0  0  0  0  0  0  0  0  0
    3.2120   -2.5877   23.6440 H   0  0  0  0  0  0  0  0  0  0  0  0
    2.7249   -1.9146   25.1677 H   0  0  0  0  0  0  0  0  0  0  0  0
    3.8602   -3.1861   25.1522 H   0  0  0  0  0  0  0  0  0  0  0  0
    5.2922   -2.2420   22.5047 H   0  0  0  0  0  0  0  0  0  0  0  0
    4.7478   -0.5272   22.1725 H   0  0  0  0  0  0  0  0  0  0  0  0
    6.5017   -1.8250   20.3901 H   0  0  0  0  0  0  0  0  0  0  0  0
    7.5382   -1.3193   18.9269 H   0  0  0  0  0  0  0  0  0  0  0  0
    7.6607    2.4037   18.0039 H   0  0  0  0  0  0  0  0  0  0  0  0
    9.1684    3.3322   16.0400 H   0  0  0  0  0  0  0  0  0  0  0  0
    9.3636   -1.7047   15.3854 H   0  0  0  0  0  0  0  0  0  0  0  0
   10.0090   -0.1183   13.5258 H   0  0  0  0  0  0  0  0  0  0  0  0
   11.3174    0.5381   14.4522 H   0  0  0  0  0  0  0  0  0  0  0  0
   12.4556   -1.0698   13.1142 H   0  0  0  0  0  0  0  0  0  0  0  0
   11.3356   -2.3736   13.5776 H   0  0  0  0  0  0  0  0  0  0  0  0
   13.2549   -0.8492   15.3390 H   0  0  0  0  0  0  0  0  0  0  0  0
   13.0007   -2.5952   15.2480 H   0  0  0  0  0  0  0  0  0  0  0  0
   11.2280   -2.4907   16.6257 H   0  0  0  0  0  0  0  0  0  0  0  0
   11.7970   -0.8366   17.0220 H   0  0  0  0  0  0  0  0  0  0  0  0
    4.3426    0.0164   27.5362 H   0  0  0  0  0  0  0  0  0  0  0  0
    3.3278   -1.3346   27.0515 H   0  0  0  0  0  0  0  0  0  0  0  0
    2.2492    0.3107   28.5283 H   0  0  0  0  0  0  0  0  0  0  0  0
    1.3599   -0.0599   27.0871 H   0  0  0  0  0  0  0  0  0  0  0  0
    1.1854    2.1647   26.7541 H   0  0  0  0  0  0  0  0  0  0  0  0
    2.3361    2.5204   28.0293 H   0  0  0  0  0  0  0  0  0  0  0  0
    4.1870    2.4729   26.5941 H   0  0  0  0  0  0  0  0  0  0  0  0
    2.9469    3.2923   25.6423 H   0  0  0  0  0  0  0  0  0  0  0  0
    3.7741    1.5918   24.0514 H   0  0  0  0  0  0  0  0  0  0  0  0
    2.3337    1.1963   24.6338 H   0  0  0  0  0  0  0  0  0  0  0  0
  1  2  1  0
  2  3  1  0
  2  4  1  0
  4  5  1  0
  5  6  1  0
  6  7  2  0
  6  8  1  0
  8  9  1  0
  9 10  2  0
 10 11  1  0
 11 12  2  0
 12 13  1  0
 13 14  1  0
 14 15  1  0
 15 16  1  0
 16 17  1  0
 17 18  1  0
  2 19  1  0
 19 20  1  0
 20 21  1  0
 21 22  1  0
 22 23  1  0
 23 24  1  0
 13  9  1  0
 18 14  1  0
 24 19  1  0
  1 25  1  0
  1 26  1  0
  1 27  1  0
  3 28  1  0
  3 29  1  0
  3 30  1  0
  4 31  1  0
  4 32  1  0
  5 33  1  0
  8 34  1  0
 10 35  1  0
 11 36  1  0
 14 37  1  0
 15 38  1  0
 15 39  1  0
 16 40  1  0
 16 41  1  0
 17 42  1  0
 17 43  1  0
 18 44  1  0
 18 45  1  0
 20 46  1  0
 20 47  1  0
 21 48  1  0
 21 49  1  0
 22 50  1  0
 22 51  1  0
 23 52  1  0
 23 53  1  0
 24 54  1  0
 24 55  1  0
M  END
>  <Energy>  (1137) 
402.76012962596525

>  <compound_id>  (1137) 
8645

>  <target_id>  (1137) 
1

>  <reference_id>  (1137) 
81

>  <inspiration_ids>  (1137) 
[81, 44]

>  <energy_score>  (1137) 
325.6674049806759

>  <distance_score>  (1137) 
5.629372133602663

>  <path>  (1137) 
/opt/xchem-fragalysis-2/maxwin/BulkDock/SCRATCH/511016/C8645-P81/C8645-P81.minimised.mol

>  <scratch_subdir>  (1137) 
/opt/xchem-fragalysis-2/maxwin/BulkDock/SCRATCH/511016/C8645-P81

>  <fragmenstein_runtime>  (1137) 
12.105907201766968

>  <fragmenstein_outcome>  (1137) 
too moved

>  <fragmenstein_mode>  (1137) 
expansion

>  <fragmenstein_error>  (1137) 


$$$$
C8645-P44
     RDKit          3D

 55 57  0  0  0  0  0  0  0  0999 V2000
    7.5217   -5.4714   25.1365 C   0  0  0  0  0  0  0  0  0  0  0  0
    6.7078   -5.2076   23.4192 C   0  0  0  0  0  0  0  0  0  0  0  0
    6.2924   -6.7815   23.2693 C   0  0  0  0  0  0  0  0  0  0  0  0
    7.5476   -4.5697   21.5664 C   0  0  0  0  0  0  0  0  0  0  0  0
    9.4206   -4.7792   20.7639 N   0  0  0  0  0  0  0  0  0  0  0  0
   11.0697   -4.6370   21.5290 C   0  0  0  0  0  0  0  0  0  0  0  0
   11.3261   -4.3048   22.6512 O   0  0  0  0  0  0  0  0  0  0  0  0
   11.9781   -4.9865   20.3868 N   0  0  0  0  0  0  0  0  0  0  0  0
   13.3428   -4.9341   20.2803 C   0  0  0  0  0  0  0  0  0  0  0  0
   14.3113   -5.0936   21.2353 C   0  0  0  0  0  0  0  0  0  0  0  0
   15.5238   -4.9490   20.5458 C   0  0  0  0  0  0  0  0  0  0  0  0
   15.3605   -4.6335   19.2637 N   0  0  0  0  0  0  0  0  0  0  0  0
   14.0167   -4.5317   19.1152 N   0  0  0  0  0  0  0  0  0  0  0  0
   13.5136   -3.6194   18.0845 C   0  0  0  0  0  0  0  0  0  0  0  0
   14.5294   -2.5698   17.5919 C   0  0  0  0  0  0  0  0  0  0  0  0
   15.2028   -3.2308   16.4010 C   0  0  0  0  0  0  0  0  0  0  0  0
   14.0641   -3.9536   15.7019 C   0  0  0  0  0  0  0  0  0  0  0  0
   13.0066   -4.2291   16.7740 C   0  0  0  0  0  0  0  0  0  0  0  0
    5.4876   -4.6010   24.5562 N   0  0  0  0  0  0  0  0  0  0  0  0
    4.7799   -5.5179   25.5069 C   0  0  0  0  0  0  0  0  0  0  0  0
    3.8908   -4.8008   26.5474 C   0  0  0  0  0  0  0  0  0  0  0  0
    4.6479   -3.7557   27.3599 C   0  0  0  0  0  0  0  0  0  0  0  0
    5.5468   -2.8808   26.4925 C   0  0  0  0  0  0  0  0  0  0  0  0
    5.3560   -3.1826   25.0084 C   0  0  0  0  0  0  0  0  0  0  0  0
    7.0919   -4.9079   25.9670 H   0  0  0  0  0  0  0  0  0  0  0  0
    7.4749   -6.5306   25.4176 H   0  0  0  0  0  0  0  0  0  0  0  0
    8.5804   -5.1609   25.2519 H   0  0  0  0  0  0  0  0  0  0  0  0
    5.2917   -7.0282   23.6120 H   0  0  0  0  0  0  0  0  0  0  0  0
    6.9683   -7.4556   23.8043 H   0  0  0  0  0  0  0  0  0  0  0  0
    6.3440   -7.1412   22.2450 H   0  0  0  0  0  0  0  0  0  0  0  0
    7.0835   -4.7849   20.5373 H   0  0  0  0  0  0  0  0  0  0  0  0
    7.3397   -3.4767   21.4902 H   0  0  0  0  0  0  0  0  0  0  0  0
    9.5058   -5.1563   19.8414 H   0  0  0  0  0  0  0  0  0  0  0  0
   11.4257   -5.1376   19.5598 H   0  0  0  0  0  0  0  0  0  0  0  0
   14.1607   -5.3311   22.2781 H   0  0  0  0  0  0  0  0  0  0  0  0
   16.5289   -5.0523   20.9322 H   0  0  0  0  0  0  0  0  0  0  0  0
   12.6972   -3.0845   18.5617 H   0  0  0  0  0  0  0  0  0  0  0  0
   13.9912   -1.6866   17.2298 H   0  0  0  0  0  0  0  0  0  0  0  0
   15.2420   -2.2336   18.3507 H   0  0  0  0  0  0  0  0  0  0  0  0
   15.9625   -3.9493   16.7269 H   0  0  0  0  0  0  0  0  0  0  0  0
   15.6918   -2.5038   15.7457 H   0  0  0  0  0  0  0  0  0  0  0  0
   14.4148   -4.8712   15.2235 H   0  0  0  0  0  0  0  0  0  0  0  0
   13.6363   -3.3210   14.9152 H   0  0  0  0  0  0  0  0  0  0  0  0
   12.7694   -5.2840   16.8301 H   0  0  0  0  0  0  0  0  0  0  0  0
   12.0766   -3.7268   16.4773 H   0  0  0  0  0  0  0  0  0  0  0  0
    5.4566   -6.1615   26.0744 H   0  0  0  0  0  0  0  0  0  0  0  0
    4.1185   -6.2046   24.9775 H   0  0  0  0  0  0  0  0  0  0  0  0
    3.4512   -5.5419   27.2254 H   0  0  0  0  0  0  0  0  0  0  0  0
    3.0563   -4.3232   26.0347 H   0  0  0  0  0  0  0  0  0  0  0  0
    3.9339   -3.1344   27.9130 H   0  0  0  0  0  0  0  0  0  0  0  0
    5.2650   -4.2592   28.1141 H   0  0  0  0  0  0  0  0  0  0  0  0
    6.5946   -3.0014   26.7867 H   0  0  0  0  0  0  0  0  0  0  0  0
    5.3077   -1.8264   26.6792 H   0  0  0  0  0  0  0  0  0  0  0  0
    5.8812   -2.4850   24.3863 H   0  0  0  0  0  0  0  0  0  0  0  0
    4.3193   -2.8742   24.8319 H   0  0  0  0  0  0  0  0  0  0  0  0
  1  2  1  0
  2  3  1  0
  2  4  1  0
  4  5  1  0
  5  6  1  0
  6  7  2  0
  6  8  1  0
  8  9  1  0
  9 10  2  0
 10 11  1  0
 11 12  2  0
 12 13  1  0
 13 14  1  0
 14 15  1  0
 15 16  1  0
 16 17  1  0
 17 18  1  0
  2 19  1  0
 19 20  1  0
 20 21  1  0
 21 22  1  0
 22 23  1  0
 23 24  1  0
 13  9  1  0
 18 14  1  0
 24 19  1  0
  1 25  1  0
  1 26  1  0
  1 27  1  0
  3 28  1  0
  3 29  1  0
  3 30  1  0
  4 31  1  0
  4 32  1  0
  5 33  1  0
  8 34  1  0
 10 35  1  0
 11 36  1  0
 14 37  1  0
 15 38  1  0
 15 39  1  0
 16 40  1  0
 16 41  1  0
 17 42  1  0
 17 43  1  0
 18 44  1  0
 18 45  1  0
 20 46  1  0
 20 47  1  0
 21 48  1  0
 21 49  1  0
 22 50  1  0
 22 51  1  0
 23 52  1  0
 23 53  1  0
 24 54  1  0
 24 55  1  0
M  END
>  <Energy>  (1138) 
402.57738623302174

>  <compound_id>  (1138) 
8645

>  <target_id>  (1138) 
1

>  <reference_id>  (1138) 
44

>  <inspiration_ids>  (1138) 
[81, 44]

>  <energy_score>  (1138) 
325.4846615877332

>  <distance_score>  (1138) 
8.937637361594009

>  <path>  (1138) 
/opt/xchem-fragalysis-2/maxwin/BulkDock/SCRATCH/511016/C8645-P44/C8645-P44.minimised.mol

>  <scratch_subdir>  (1138) 
/opt/xchem-fragalysis-2/maxwin/BulkDock/SCRATCH/511016/C8645-P44

>  <fragmenstein_runtime>  (1138) 
17.610924005508423

>  <fragmenstein_outcome>  (1138) 
too moved

>  <fragmenstein_mode>  (1138) 
expansion

>  <fragmenstein_error>  (1138) 


$$$$
C8646-P81
     RDKit          3D

 50 52  0  0  0  0  0  0  0  0999 V2000
    8.4139   -1.3516   19.6954 O   0  0  0  0  0  0  0  0  0  0  0  0
    7.6122   -0.5491   19.4149 C   0  0  0  0  0  0  0  0  0  0  0  0
    6.5817   -0.3183   20.7274 O   0  0  0  0  0  0  0  0  0  0  0  0
    5.4407   -1.1865   22.0358 C   0  0  0  0  0  0  0  0  0  0  0  0
    4.8122   -1.5551   23.8397 C   0  0  0  0  0  0  0  0  0  0  0  0
    4.4309   -0.6455   25.0421 N   0  0  0  0  0  0  0  0  0  0  0  0
    3.9004   -0.9774   26.3623 C   0  0  0  0  0  0  0  0  0  0  0  0
    3.5561   -2.0102   26.8102 O   0  0  0  0  0  0  0  0  0  0  0  0
    4.0206    0.3670   27.0131 N   0  0  0  0  0  0  0  0  0  0  0  0
    3.8473    0.7735   28.4554 C   0  0  0  0  0  0  0  0  0  0  0  0
    2.7655    0.1160   29.3273 C   0  0  0  0  0  0  0  0  0  0  0  0
    1.4146    0.6497   28.9271 C   0  0  0  0  0  0  0  0  0  0  0  0
    1.3944    0.5814   27.4254 C   0  0  0  0  0  0  0  0  0  0  0  0
    2.7168    1.1438   26.8638 C   0  0  0  0  0  0  0  0  0  0  0  0
    7.9984    0.1149   17.7916 C   0  0  0  0  0  0  0  0  0  0  0  0
    7.6745    0.1365   16.4441 C   0  0  0  0  0  0  0  0  0  0  0  0
    8.0674    1.5896   16.2941 C   0  0  0  0  0  0  0  0  0  0  0  0
    9.2517    1.8152   16.8510 N   0  0  0  0  0  0  0  0  0  0  0  0
    9.4667    0.5104   17.1014 N   0  0  0  0  0  0  0  0  0  0  0  0
   10.2375   -0.2332   16.0083 C   0  0  0  0  0  0  0  0  0  0  0  0
   11.7409   -0.4548   16.2619 C   0  0  0  0  0  0  0  0  0  0  0  0
   12.2747   -0.8862   14.9067 C   0  0  0  0  0  0  0  0  0  0  0  0
   11.6131    0.0872   13.9589 C   0  0  0  0  0  0  0  0  0  0  0  0
   10.2794    0.4495   14.6077 C   0  0  0  0  0  0  0  0  0  0  0  0
    5.4783   -2.0844   21.3895 H   0  0  0  0  0  0  0  0  0  0  0  0
    5.6876   -2.2087   22.3812 H   0  0  0  0  0  0  0  0  0  0  0  0
    3.9438   -2.2189   23.7458 H   0  0  0  0  0  0  0  0  0  0  0  0
    5.5828   -2.1452   24.3291 H   0  0  0  0  0  0  0  0  0  0  0  0
    4.5427    0.3548   24.9732 H   0  0  0  0  0  0  0  0  0  0  0  0
    3.9616    1.8571   28.6286 H   0  0  0  0  0  0  0  0  0  0  0  0
    4.7840    0.3834   28.8842 H   0  0  0  0  0  0  0  0  0  0  0  0
    2.7978   -0.9736   29.2124 H   0  0  0  0  0  0  0  0  0  0  0  0
    2.9522    0.3347   30.3847 H   0  0  0  0  0  0  0  0  0  0  0  0
    0.6018    0.0663   29.3708 H   0  0  0  0  0  0  0  0  0  0  0  0
    1.3023    1.6876   29.2619 H   0  0  0  0  0  0  0  0  0  0  0  0
    1.2598   -0.4631   27.1275 H   0  0  0  0  0  0  0  0  0  0  0  0
    0.5446    1.1554   27.0408 H   0  0  0  0  0  0  0  0  0  0  0  0
    2.5916    1.1986   25.7759 H   0  0  0  0  0  0  0  0  0  0  0  0
    2.8358    2.2185   27.0922 H   0  0  0  0  0  0  0  0  0  0  0  0
    6.8505   -0.4430   16.0414 H   0  0  0  0  0  0  0  0  0  0  0  0
    7.5740    2.4346   15.8354 H   0  0  0  0  0  0  0  0  0  0  0  0
    9.7480   -1.2104   15.9027 H   0  0  0  0  0  0  0  0  0  0  0  0
   11.9617   -1.2285   16.9941 H   0  0  0  0  0  0  0  0  0  0  0  0
   12.2370    0.4738   16.5674 H   0  0  0  0  0  0  0  0  0  0  0  0
   11.9607   -1.9125   14.6815 H   0  0  0  0  0  0  0  0  0  0  0  0
   13.3663   -0.8431   14.8536 H   0  0  0  0  0  0  0  0  0  0  0  0
   12.2294    0.9882   13.8531 H   0  0  0  0  0  0  0  0  0  0  0  0
   11.4830   -0.3338   12.9637 H   0  0  0  0  0  0  0  0  0  0  0  0
   10.2280    1.5419   14.6470 H   0  0  0  0  0  0  0  0  0  0  0  0
    9.4420    0.1060   13.9962 H   0  0  0  0  0  0  0  0  0  0  0  0
  1  2  2  0
  2  3  1  0
  3  4  1  0
  4  5  1  0
  5  6  1  0
  6  7  1  0
  7  8  2  0
  7  9  1  0
  9 10  1  0
 10 11  1  0
 11 12  1  0
 12 13  1  0
 13 14  1  0
  2 15  1  0
 15 16  2  0
 16 17  1  0
 17 18  2  0
 18 19  1  0
 19 20  1  0
 20 21  1  0
 21 22  1  0
 22 23  1  0
 23 24  1  0
 14  9  1  0
 19 15  1  0
 24 20  1  0
  4 25  1  0
  4 26  1  0
  5 27  1  0
  5 28  1  0
  6 29  1  0
 10 30  1  0
 10 31  1  0
 11 32  1  0
 11 33  1  0
 12 34  1  0
 12 35  1  0
 13 36  1  0
 13 37  1  0
 14 38  1  0
 14 39  1  0
 16 40  1  0
 17 41  1  0
 20 42  1  0
 21 43  1  0
 21 44  1  0
 22 45  1  0
 22 46  1  0
 23 47  1  0
 23 48  1  0
 24 49  1  0
 24 50  1  0
M  END
>  <Energy>  (1139) 
514.41772446179687

>  <compound_id>  (1139) 
8646

>  <target_id>  (1139) 
1

>  <reference_id>  (1139) 
81

>  <inspiration_ids>  (1139) 
[81, 44]

>  <energy_score>  (1139) 
547.516330008855

>  <distance_score>  (1139) 
5.503258050294547

>  <path>  (1139) 
/opt/xchem-fragalysis-2/maxwin/BulkDock/SCRATCH/511016/C8646-P81/C8646-P81.minimised.mol

>  <scratch_subdir>  (1139) 
/opt/xchem-fragalysis-2/maxwin/BulkDock/SCRATCH/511016/C8646-P81

>  <fragmenstein_runtime>  (1139) 
13.316601514816284

>  <fragmenstein_outcome>  (1139) 
too moved

>  <fragmenstein_mode>  (1139) 
expansion

>  <fragmenstein_error>  (1139) 


$$$$
C8646-P44
     RDKit          3D

 50 52  0  0  0  0  0  0  0  0999 V2000
   12.1151   -3.5384   21.7458 O   0  0  0  0  0  0  0  0  0  0  0  0
   11.5122   -3.2137   20.7195 C   0  0  0  0  0  0  0  0  0  0  0  0
    9.5760   -3.1528   20.7917 O   0  0  0  0  0  0  0  0  0  0  0  0
    7.6619   -3.5191   21.2742 C   0  0  0  0  0  0  0  0  0  0  0  0
    6.3698   -3.5157   22.7839 C   0  0  0  0  0  0  0  0  0  0  0  0
    5.8920   -2.7571   24.1696 N   0  0  0  0  0  0  0  0  0  0  0  0
    4.7253   -2.0252   24.4698 C   0  0  0  0  0  0  0  0  0  0  0  0
    3.8495   -1.7127   23.7891 O   0  0  0  0  0  0  0  0  0  0  0  0
    4.8762   -1.8458   25.9419 N   0  0  0  0  0  0  0  0  0  0  0  0
    3.9037   -1.3206   26.9674 C   0  0  0  0  0  0  0  0  0  0  0  0
    4.2477   -1.3177   28.4503 C   0  0  0  0  0  0  0  0  0  0  0  0
    5.1863   -0.1701   28.6932 C   0  0  0  0  0  0  0  0  0  0  0  0
    6.2318   -0.2799   27.6125 C   0  0  0  0  0  0  0  0  0  0  0  0
    5.5748   -0.5133   26.2409 C   0  0  0  0  0  0  0  0  0  0  0  0
   12.4032   -2.8893   18.9384 C   0  0  0  0  0  0  0  0  0  0  0  0
   13.1923   -3.9091   18.4056 C   0  0  0  0  0  0  0  0  0  0  0  0
   13.3831   -3.6889   17.0288 C   0  0  0  0  0  0  0  0  0  0  0  0
   12.9464   -2.5599   16.4965 N   0  0  0  0  0  0  0  0  0  0  0  0
   12.5147   -1.7248   17.4941 N   0  0  0  0  0  0  0  0  0  0  0  0
   12.6812    0.1176   16.7202 C   0  0  0  0  0  0  0  0  0  0  0  0
   10.9918    1.3725   17.6191 C   0  0  0  0  0  0  0  0  0  0  0  0
   11.8684    2.0696   19.6125 C   0  0  0  0  0  0  0  0  0  0  0  0
   13.8390    1.3963   19.4880 C   0  0  0  0  0  0  0  0  0  0  0  0
   14.4384    0.3812   17.7870 C   0  0  0  0  0  0  0  0  0  0  0  0
    7.2481   -2.5519   21.1396 H   0  0  0  0  0  0  0  0  0  0  0  0
    7.4469   -4.2917   20.5393 H   0  0  0  0  0  0  0  0  0  0  0  0
    5.5724   -3.0627   22.1749 H   0  0  0  0  0  0  0  0  0  0  0  0
    6.4121   -4.5645   23.1639 H   0  0  0  0  0  0  0  0  0  0  0  0
    6.4083   -2.9219   25.0269 H   0  0  0  0  0  0  0  0  0  0  0  0
    3.3407   -0.4325   26.6306 H   0  0  0  0  0  0  0  0  0  0  0  0
    3.1259   -2.0952   26.9151 H   0  0  0  0  0  0  0  0  0  0  0  0
    3.3435   -1.1984   29.0570 H   0  0  0  0  0  0  0  0  0  0  0  0
    4.7139   -2.2694   28.7325 H   0  0  0  0  0  0  0  0  0  0  0  0
    4.6539    0.7848   28.6101 H   0  0  0  0  0  0  0  0  0  0  0  0
    5.6327   -0.2177   29.6913 H   0  0  0  0  0  0  0  0  0  0  0  0
    6.8377    0.6328   27.5870 H   0  0  0  0  0  0  0  0  0  0  0  0
    6.9114   -1.1131   27.8325 H   0  0  0  0  0  0  0  0  0  0  0  0
    6.4455   -0.5145   25.5822 H   0  0  0  0  0  0  0  0  0  0  0  0
    5.0075    0.3568   25.8666 H   0  0  0  0  0  0  0  0  0  0  0  0
   13.4455   -4.8193   18.9331 H   0  0  0  0  0  0  0  0  0  0  0  0
   13.8395   -4.4005   16.3509 H   0  0  0  0  0  0  0  0  0  0  0  0
   12.6289   -0.2432   15.6858 H   0  0  0  0  0  0  0  0  0  0  0  0
   10.0347    0.8038   17.7536 H   0  0  0  0  0  0  0  0  0  0  0  0
   10.7532    2.1381   16.8194 H   0  0  0  0  0  0  0  0  0  0  0  0
   12.1705    3.1722   19.8594 H   0  0  0  0  0  0  0  0  0  0  0  0
   11.1957    2.1507   20.5344 H   0  0  0  0  0  0  0  0  0  0  0  0
   14.4760    2.2931   19.5486 H   0  0  0  0  0  0  0  0  0  0  0  0
   14.0561    0.7270   20.3348 H   0  0  0  0  0  0  0  0  0  0  0  0
   15.2517    0.8980   17.2432 H   0  0  0  0  0  0  0  0  0  0  0  0
   14.8357   -0.6032   18.1077 H   0  0  0  0  0  0  0  0  0  0  0  0
  1  2  2  0
  2  3  1  0
  3  4  1  0
  4  5  1  0
  5  6  1  0
  6  7  1  0
  7  8  2  0
  7  9  1  0
  9 10  1  0
 10 11  1  0
 11 12  1  0
 12 13  1  0
 13 14  1  0
  2 15  1  0
 15 16  2  0
 16 17  1  0
 17 18  2  0
 18 19  1  0
 19 20  1  0
 20 21  1  0
 21 22  1  0
 22 23  1  0
 23 24  1  0
 14  9  1  0
 19 15  1  0
 24 20  1  0
  4 25  1  0
  4 26  1  0
  5 27  1  0
  5 28  1  0
  6 29  1  0
 10 30  1  0
 10 31  1  0
 11 32  1  0
 11 33  1  0
 12 34  1  0
 12 35  1  0
 13 36  1  0
 13 37  1  0
 14 38  1  0
 14 39  1  0
 16 40  1  0
 17 41  1  0
 20 42  1  0
 21 43  1  0
 21 44  1  0
 22 45  1  0
 22 46  1  0
 23 47  1  0
 23 48  1  0
 24 49  1  0
 24 50  1  0
M  END
>  <Energy>  (1140) 
1189.2933628468809

>  <compound_id>  (1140) 
8646

>  <target_id>  (1140) 
1

>  <reference_id>  (1140) 
44

>  <inspiration_ids>  (1140) 
[81, 44]

>  <energy_score>  (1140) 
1222.391968393959

>  <distance_score>  (1140) 
6.808508037368489

>  <path>  (1140) 
/opt/xchem-fragalysis-2/maxwin/BulkDock/SCRATCH/511016/C8646-P44/C8646-P44.minimised.mol

>  <scratch_subdir>  (1140) 
/opt/xchem-fragalysis-2/maxwin/BulkDock/SCRATCH/511016/C8646-P44

>  <fragmenstein_runtime>  (1140) 
12.647864580154419

>  <fragmenstein_outcome>  (1140) 
too moved

>  <fragmenstein_mode>  (1140) 
expansion

>  <fragmenstein_error>  (1140) 


$$$$
C8648-P81
     RDKit          3D

 44 46  0  0  0  0  0  0  0  0999 V2000
    3.6560    1.2181   24.4003 O   0  0  0  0  0  0  0  0  0  0  0  0
    3.5721    1.6959   23.2953 C   0  0  0  0  0  0  0  0  0  0  0  0
    4.2441    1.2275   21.8838 N   0  0  0  0  0  0  0  0  0  0  0  0
    5.5091   -0.1231   21.4856 C   0  0  0  0  0  0  0  0  0  0  0  0
    6.7198   -0.2411   19.7635 C   0  0  0  0  0  0  0  0  0  0  0  0
    7.4568    0.5363   18.9499 C   0  0  0  0  0  0  0  0  0  0  0  0
    8.0324    0.0947   17.4716 C   0  0  0  0  0  0  0  0  0  0  0  0
    6.9346   -0.6182   16.8951 N   0  0  0  0  0  0  0  0  0  0  0  0
    6.5926   -1.4168   15.6196 C   0  0  0  0  0  0  0  0  0  0  0  0
    5.0811   -1.9390   15.3018 C   0  0  0  0  0  0  0  0  0  0  0  0
    4.6052   -1.4348   13.9781 C   0  0  0  0  0  0  0  0  0  0  0  0
    5.8846   -1.5505   13.1913 C   0  0  0  0  0  0  0  0  0  0  0  0
    7.1318   -1.4451   14.1602 C   0  0  0  0  0  0  0  0  0  0  0  0
    6.2295   -1.0007   18.3345 N   0  0  0  0  0  0  0  0  0  0  0  0
    2.8480    3.1081   22.7848 N   0  0  0  0  0  0  0  0  0  0  0  0
    1.4393    2.8720   22.3991 C   0  0  0  0  0  0  0  0  0  0  0  0
    0.7929    3.9068   21.4259 C   0  0  0  0  0  0  0  0  0  0  0  0
    0.5229    5.2055   22.1432 C   0  0  0  0  0  0  0  0  0  0  0  0
    1.7748    5.4972   22.9232 C   0  0  0  0  0  0  0  0  0  0  0  0
    2.2122    4.2048   23.6029 C   0  0  0  0  0  0  0  0  0  0  0  0
    3.8932    1.7999   21.1381 H   0  0  0  0  0  0  0  0  0  0  0  0
    5.9708    0.6974   22.0091 H   0  0  0  0  0  0  0  0  0  0  0  0
    5.3929   -1.0323   22.0857 H   0  0  0  0  0  0  0  0  0  0  0  0
    7.5470    1.5988   19.0869 H   0  0  0  0  0  0  0  0  0  0  0  0
    8.6517    0.6814   16.8057 H   0  0  0  0  0  0  0  0  0  0  0  0
    7.1887   -2.2887   15.8706 H   0  0  0  0  0  0  0  0  0  0  0  0
    4.3368   -1.8417   16.0948 H   0  0  0  0  0  0  0  0  0  0  0  0
    5.1345   -3.0273   15.1068 H   0  0  0  0  0  0  0  0  0  0  0  0
    4.1544   -0.4465   14.0137 H   0  0  0  0  0  0  0  0  0  0  0  0
    3.8277   -2.0879   13.5624 H   0  0  0  0  0  0  0  0  0  0  0  0
    5.8014   -2.5277   12.7500 H   0  0  0  0  0  0  0  0  0  0  0  0
    5.8875   -0.9022   12.3272 H   0  0  0  0  0  0  0  0  0  0  0  0
    7.6878   -2.3795   14.0250 H   0  0  0  0  0  0  0  0  0  0  0  0
    7.8675   -0.6737   13.9310 H   0  0  0  0  0  0  0  0  0  0  0  0
    0.7141    2.6831   23.2086 H   0  0  0  0  0  0  0  0  0  0  0  0
    1.5572    2.0675   21.6630 H   0  0  0  0  0  0  0  0  0  0  0  0
    1.4704    4.0811   20.5796 H   0  0  0  0  0  0  0  0  0  0  0  0
   -0.1438    3.5120   21.0188 H   0  0  0  0  0  0  0  0  0  0  0  0
    0.2838    6.0122   21.4436 H   0  0  0  0  0  0  0  0  0  0  0  0
   -0.3295    5.0896   22.8231 H   0  0  0  0  0  0  0  0  0  0  0  0
    2.5682    5.8559   22.2564 H   0  0  0  0  0  0  0  0  0  0  0  0
    1.5868    6.2811   23.6647 H   0  0  0  0  0  0  0  0  0  0  0  0
    3.0823    4.5170   24.2041 H   0  0  0  0  0  0  0  0  0  0  0  0
    1.5515    3.8616   24.4196 H   0  0  0  0  0  0  0  0  0  0  0  0
  1  2  2  0
  2  3  1  0
  3  4  1  0
  4  5  1  0
  5  6  1  0
  6  7  2  0
  7  8  1  0
  8  9  1  0
  9 10  1  0
 10 11  1  0
 11 12  1  0
 12 13  1  0
  8 14  1  0
  2 15  1  0
 15 16  1  0
 16 17  1  0
 17 18  1  0
 18 19  1  0
 19 20  1  0
 14  5  2  0
 20 15  1  0
 13  9  1  0
  3 21  1  0
  4 22  1  0
  4 23  1  0
  6 24  1  0
  7 25  1  0
  9 26  1  0
 10 27  1  0
 10 28  1  0
 11 29  1  0
 11 30  1  0
 12 31  1  0
 12 32  1  0
 13 33  1  0
 13 34  1  0
 16 35  1  0
 16 36  1  0
 17 37  1  0
 17 38  1  0
 18 39  1  0
 18 40  1  0
 19 41  1  0
 19 42  1  0
 20 43  1  0
 20 44  1  0
M  END
>  <Energy>  (1141) 
439.14579500454266

>  <compound_id>  (1141) 
8648

>  <target_id>  (1141) 
1

>  <reference_id>  (1141) 
81

>  <inspiration_ids>  (1141) 
[81, 44]

>  <energy_score>  (1141) 
461.5286202377064

>  <distance_score>  (1141) 
6.423705895081901

>  <path>  (1141) 
/opt/xchem-fragalysis-2/maxwin/BulkDock/SCRATCH/511016/C8648-P81/C8648-P81.minimised.mol

>  <scratch_subdir>  (1141) 
/opt/xchem-fragalysis-2/maxwin/BulkDock/SCRATCH/511016/C8648-P81

>  <fragmenstein_runtime>  (1141) 
8.417015314102173

>  <fragmenstein_outcome>  (1141) 
too moved

>  <fragmenstein_mode>  (1141) 
expansion

>  <fragmenstein_error>  (1141) 


$$$$
C8648-P44
     RDKit          3D

 44 46  0  0  0  0  0  0  0  0999 V2000
    6.4324    7.9822   20.0790 O   0  0  0  0  0  0  0  0  0  0  0  0
    6.1826    6.8464   20.2364 C   0  0  0  0  0  0  0  0  0  0  0  0
    6.5703    5.6707   19.4445 N   0  0  0  0  0  0  0  0  0  0  0  0
    7.2924    5.5712   18.1845 C   0  0  0  0  0  0  0  0  0  0  0  0
    7.9762    4.2994   17.7602 C   0  0  0  0  0  0  0  0  0  0  0  0
    8.2091    3.0714   18.4168 C   0  0  0  0  0  0  0  0  0  0  0  0
    8.8648    2.2745   17.5040 C   0  0  0  0  0  0  0  0  0  0  0  0
    9.0604    3.0447   16.4005 N   0  0  0  0  0  0  0  0  0  0  0  0
    9.7016    2.7077   15.1486 C   0  0  0  0  0  0  0  0  0  0  0  0
   10.0131    1.2334   14.8902 C   0  0  0  0  0  0  0  0  0  0  0  0
   10.9689    1.2994   13.7100 C   0  0  0  0  0  0  0  0  0  0  0  0
   11.8752    2.4770   14.0445 C   0  0  0  0  0  0  0  0  0  0  0  0
   11.0339    3.4288   14.8988 C   0  0  0  0  0  0  0  0  0  0  0  0
    8.5037    4.2664   16.5199 N   0  0  0  0  0  0  0  0  0  0  0  0
    5.3972    6.1818   21.3111 N   0  0  0  0  0  0  0  0  0  0  0  0
    3.9211    6.0841   20.9002 C   0  0  0  0  0  0  0  0  0  0  0  0
    2.8155    5.3626   21.7296 C   0  0  0  0  0  0  0  0  0  0  0  0
    3.2874    4.8145   23.0552 C   0  0  0  0  0  0  0  0  0  0  0  0
    4.3163    5.7540   23.6258 C   0  0  0  0  0  0  0  0  0  0  0  0
    4.7922    6.7460   22.5622 C   0  0  0  0  0  0  0  0  0  0  0  0
    6.2486    4.8330   19.9146 H   0  0  0  0  0  0  0  0  0  0  0  0
    8.0325    6.3810   18.1921 H   0  0  0  0  0  0  0  0  0  0  0  0
    6.5573    5.8393   17.4151 H   0  0  0  0  0  0  0  0  0  0  0  0
    7.9072    2.7795   19.4077 H   0  0  0  0  0  0  0  0  0  0  0  0
    9.1911    1.2513   17.5618 H   0  0  0  0  0  0  0  0  0  0  0  0
    9.0123    3.0421   14.3680 H   0  0  0  0  0  0  0  0  0  0  0  0
    9.1161    0.6494   14.6643 H   0  0  0  0  0  0  0  0  0  0  0  0
   10.5154    0.7671   15.7422 H   0  0  0  0  0  0  0  0  0  0  0  0
   10.4150    1.5026   12.7859 H   0  0  0  0  0  0  0  0  0  0  0  0
   11.5293    0.3701   13.5728 H   0  0  0  0  0  0  0  0  0  0  0  0
   12.7411    2.1312   14.6195 H   0  0  0  0  0  0  0  0  0  0  0  0
   12.2553    2.9640   13.1411 H   0  0  0  0  0  0  0  0  0  0  0  0
   10.8628    4.3749   14.3720 H   0  0  0  0  0  0  0  0  0  0  0  0
   11.5601    3.6770   15.8245 H   0  0  0  0  0  0  0  0  0  0  0  0
    3.5645    7.0680   20.5445 H   0  0  0  0  0  0  0  0  0  0  0  0
    3.9629    5.5206   19.9551 H   0  0  0  0  0  0  0  0  0  0  0  0
    2.0179    6.0946   21.9169 H   0  0  0  0  0  0  0  0  0  0  0  0
    2.3440    4.5733   21.1328 H   0  0  0  0  0  0  0  0  0  0  0  0
    2.4479    4.6761   23.7453 H   0  0  0  0  0  0  0  0  0  0  0  0
    3.7382    3.8278   22.9280 H   0  0  0  0  0  0  0  0  0  0  0  0
    3.8926    6.3134   24.4682 H   0  0  0  0  0  0  0  0  0  0  0  0
    5.1611    5.1823   24.0268 H   0  0  0  0  0  0  0  0  0  0  0  0
    5.6640    7.2388   23.0222 H   0  0  0  0  0  0  0  0  0  0  0  0
    4.1324    7.6226   22.4264 H   0  0  0  0  0  0  0  0  0  0  0  0
  1  2  2  0
  2  3  1  0
  3  4  1  0
  4  5  1  0
  5  6  1  0
  6  7  2  0
  7  8  1  0
  8  9  1  0
  9 10  1  0
 10 11  1  0
 11 12  1  0
 12 13  1  0
  8 14  1  0
  2 15  1  0
 15 16  1  0
 16 17  1  0
 17 18  1  0
 18 19  1  0
 19 20  1  0
 14  5  2  0
 20 15  1  0
 13  9  1  0
  3 21  1  0
  4 22  1  0
  4 23  1  0
  6 24  1  0
  7 25  1  0
  9 26  1  0
 10 27  1  0
 10 28  1  0
 11 29  1  0
 11 30  1  0
 12 31  1  0
 12 32  1  0
 13 33  1  0
 13 34  1  0
 16 35  1  0
 16 36  1  0
 17 37  1  0
 17 38  1  0
 18 39  1  0
 18 40  1  0
 19 41  1  0
 19 42  1  0
 20 43  1  0
 20 44  1  0
M  END
>  <Energy>  (1142) 
34.113410243132719

>  <compound_id>  (1142) 
8648

>  <target_id>  (1142) 
1

>  <reference_id>  (1142) 
44

>  <inspiration_ids>  (1142) 
[81, 44]

>  <energy_score>  (1142) 
56.49623547629159

>  <distance_score>  (1142) 
8.99480272008356

>  <path>  (1142) 
/opt/xchem-fragalysis-2/maxwin/BulkDock/SCRATCH/511016/C8648-P44/C8648-P44.minimised.mol

>  <scratch_subdir>  (1142) 
/opt/xchem-fragalysis-2/maxwin/BulkDock/SCRATCH/511016/C8648-P44

>  <fragmenstein_runtime>  (1142) 
9.411404609680176

>  <fragmenstein_outcome>  (1142) 
too moved

>  <fragmenstein_mode>  (1142) 
expansion

>  <fragmenstein_error>  (1142) 


$$$$
C8649-P81
     RDKit          3D

 51 53  0  0  0  0  0  0  0  0999 V2000
   10.3172    0.3503   25.0747 C   0  0  0  0  0  0  0  0  0  0  0  0
   10.3216    1.6408   24.2327 C   0  0  0  0  0  0  0  0  0  0  0  0
   10.1301    1.3902   22.5814 C   0  0  0  0  0  0  0  0  0  0  0  0
   10.2867   -0.0155   21.9074 N   0  0  0  0  0  0  0  0  0  0  0  0
    9.6815   -0.8938   20.0832 C   0  0  0  0  0  0  0  0  0  0  0  0
   11.3392   -2.6418   19.9786 C   0  0  0  0  0  0  0  0  0  0  0  0
   12.1070   -3.6383   20.9466 C   0  0  0  0  0  0  0  0  0  0  0  0
   13.1828   -4.2821   20.3214 C   0  0  0  0  0  0  0  0  0  0  0  0
   13.3761   -3.9870   19.0573 N   0  0  0  0  0  0  0  0  0  0  0  0
   12.4739   -3.0465   18.7093 N   0  0  0  0  0  0  0  0  0  0  0  0
   12.6150   -2.4460   17.3757 C   0  0  0  0  0  0  0  0  0  0  0  0
   12.2441   -3.3398   16.1973 C   0  0  0  0  0  0  0  0  0  0  0  0
   12.6839   -2.4661   15.0289 C   0  0  0  0  0  0  0  0  0  0  0  0
   14.0293   -1.8943   15.4755 C   0  0  0  0  0  0  0  0  0  0  0  0
   14.0365   -1.9858   17.0074 C   0  0  0  0  0  0  0  0  0  0  0  0
    9.4197    2.6947   24.8301 N   0  0  0  0  0  0  0  0  0  0  0  0
    9.4994    4.0034   24.1747 C   0  0  0  0  0  0  0  0  0  0  0  0
    8.3691    4.9464   24.6175 C   0  0  0  0  0  0  0  0  0  0  0  0
    8.3345    5.1290   26.1260 C   0  0  0  0  0  0  0  0  0  0  0  0
    8.3504    3.7892   26.8408 C   0  0  0  0  0  0  0  0  0  0  0  0
    9.4365    2.8382   26.2970 C   0  0  0  0  0  0  0  0  0  0  0  0
    9.3213   -0.0608   25.2501 H   0  0  0  0  0  0  0  0  0  0  0  0
   10.9533   -0.4075   24.6103 H   0  0  0  0  0  0  0  0  0  0  0  0
   10.7726    0.5278   26.0560 H   0  0  0  0  0  0  0  0  0  0  0  0
   11.3478    2.0280   24.3205 H   0  0  0  0  0  0  0  0  0  0  0  0
   10.9227    2.0113   22.1583 H   0  0  0  0  0  0  0  0  0  0  0  0
    9.1627    1.8285   22.3226 H   0  0  0  0  0  0  0  0  0  0  0  0
   11.3101   -0.1759   22.0330 H   0  0  0  0  0  0  0  0  0  0  0  0
    8.6958   -0.9412   19.3689 H   0  0  0  0  0  0  0  0  0  0  0  0
    8.5124   -0.6269   20.6411 H   0  0  0  0  0  0  0  0  0  0  0  0
   11.8763   -3.7643   21.9969 H   0  0  0  0  0  0  0  0  0  0  0  0
   13.8588   -4.9865   20.7869 H   0  0  0  0  0  0  0  0  0  0  0  0
   12.0002   -1.5482   17.3000 H   0  0  0  0  0  0  0  0  0  0  0  0
   11.1803   -3.5695   16.1441 H   0  0  0  0  0  0  0  0  0  0  0  0
   12.8005   -4.2834   16.2216 H   0  0  0  0  0  0  0  0  0  0  0  0
   12.7343   -3.0003   14.0799 H   0  0  0  0  0  0  0  0  0  0  0  0
   11.9668   -1.6466   14.8894 H   0  0  0  0  0  0  0  0  0  0  0  0
   14.8580   -2.4800   15.0628 H   0  0  0  0  0  0  0  0  0  0  0  0
   14.1499   -0.8619   15.1317 H   0  0  0  0  0  0  0  0  0  0  0  0
   14.2795   -1.0237   17.4710 H   0  0  0  0  0  0  0  0  0  0  0  0
   14.8027   -2.7026   17.3240 H   0  0  0  0  0  0  0  0  0  0  0  0
   10.4711    4.4689   24.3837 H   0  0  0  0  0  0  0  0  0  0  0  0
    9.4249    3.9053   23.0871 H   0  0  0  0  0  0  0  0  0  0  0  0
    8.5076    5.9227   24.1381 H   0  0  0  0  0  0  0  0  0  0  0  0
    7.4056    4.5691   24.2706 H   0  0  0  0  0  0  0  0  0  0  0  0
    9.2121    5.7101   26.4358 H   0  0  0  0  0  0  0  0  0  0  0  0
    7.4513    5.7067   26.4197 H   0  0  0  0  0  0  0  0  0  0  0  0
    8.5202    3.9506   27.9122 H   0  0  0  0  0  0  0  0  0  0  0  0
    7.3612    3.3308   26.7600 H   0  0  0  0  0  0  0  0  0  0  0  0
    9.2561    1.8767   26.7872 H   0  0  0  0  0  0  0  0  0  0  0  0
   10.4238    3.1911   26.6207 H   0  0  0  0  0  0  0  0  0  0  0  0
  1  2  1  0
  2  3  1  0
  3  4  1  0
  4  5  1  0
  5  6  1  0
  6  7  2  0
  7  8  1  0
  8  9  2  0
  9 10  1  0
 10 11  1  0
 11 12  1  0
 12 13  1  0
 13 14  1  0
 14 15  1  0
  2 16  1  0
 16 17  1  0
 17 18  1  0
 18 19  1  0
 19 20  1  0
 20 21  1  0
 10  6  1  0
 15 11  1  0
 21 16  1  0
  1 22  1  0
  1 23  1  0
  1 24  1  0
  2 25  1  0
  3 26  1  0
  3 27  1  0
  4 28  1  0
  5 29  1  0
  5 30  1  0
  7 31  1  0
  8 32  1  0
 11 33  1  0
 12 34  1  0
 12 35  1  0
 13 36  1  0
 13 37  1  0
 14 38  1  0
 14 39  1  0
 15 40  1  0
 15 41  1  0
 17 42  1  0
 17 43  1  0
 18 44  1  0
 18 45  1  0
 19 46  1  0
 19 47  1  0
 20 48  1  0
 20 49  1  0
 21 50  1  0
 21 51  1  0
M  END
>  <Energy>  (1143) 
698.80538321542474

>  <compound_id>  (1143) 
8649

>  <target_id>  (1143) 
1

>  <reference_id>  (1143) 
81

>  <inspiration_ids>  (1143) 
[81, 44]

>  <energy_score>  (1143) 
626.1624256365217

>  <distance_score>  (1143) 
9.447769251767712

>  <path>  (1143) 
/opt/xchem-fragalysis-2/maxwin/BulkDock/SCRATCH/511016/C8649-P81/C8649-P81.minimised.mol

>  <scratch_subdir>  (1143) 
/opt/xchem-fragalysis-2/maxwin/BulkDock/SCRATCH/511016/C8649-P81

>  <fragmenstein_runtime>  (1143) 
10.238295793533325

>  <fragmenstein_outcome>  (1143) 
too moved

>  <fragmenstein_mode>  (1143) 
expansion

>  <fragmenstein_error>  (1143) 


$$$$
C8649-P44
     RDKit          3D

 51 53  0  0  0  0  0  0  0  0999 V2000
    4.5741    0.8423   24.4198 C   0  0  0  0  0  0  0  0  0  0  0  0
    4.2418    1.7532   23.1358 C   0  0  0  0  0  0  0  0  0  0  0  0
    4.6677    0.8377   21.3813 C   0  0  0  0  0  0  0  0  0  0  0  0
    6.2734    0.4061   20.1592 N   0  0  0  0  0  0  0  0  0  0  0  0
    7.6174    1.0867   19.3703 C   0  0  0  0  0  0  0  0  0  0  0  0
    7.8791    2.3546   18.5181 C   0  0  0  0  0  0  0  0  0  0  0  0
    7.6071    3.6845   18.7959 C   0  0  0  0  0  0  0  0  0  0  0  0
    8.3922    4.4789   17.9684 C   0  0  0  0  0  0  0  0  0  0  0  0
    9.0949    3.7463   17.1319 N   0  0  0  0  0  0  0  0  0  0  0  0
    8.6713    2.4711   17.3424 N   0  0  0  0  0  0  0  0  0  0  0  0
    8.7692    1.6890   16.1150 C   0  0  0  0  0  0  0  0  0  0  0  0
    8.6580    0.1848   16.1741 C   0  0  0  0  0  0  0  0  0  0  0  0
    9.7022   -0.4128   15.2453 C   0  0  0  0  0  0  0  0  0  0  0  0
   10.1449    0.7339   14.3633 C   0  0  0  0  0  0  0  0  0  0  0  0
   10.0551    1.9303   15.2922 C   0  0  0  0  0  0  0  0  0  0  0  0
    2.8559    2.4670   23.5094 N   0  0  0  0  0  0  0  0  0  0  0  0
    2.8259    3.0279   24.8859 C   0  0  0  0  0  0  0  0  0  0  0  0
    1.4013    3.4074   25.3348 C   0  0  0  0  0  0  0  0  0  0  0  0
    0.5200    3.9072   24.1994 C   0  0  0  0  0  0  0  0  0  0  0  0
    1.3772    4.5210   23.1102 C   0  0  0  0  0  0  0  0  0  0  0  0
    2.4712    3.5623   22.5889 C   0  0  0  0  0  0  0  0  0  0  0  0
    5.1072   -0.0577   24.1408 H   0  0  0  0  0  0  0  0  0  0  0  0
    5.1724    1.3980   25.1507 H   0  0  0  0  0  0  0  0  0  0  0  0
    3.6780    0.4768   24.9352 H   0  0  0  0  0  0  0  0  0  0  0  0
    4.7894    2.7107   23.2039 H   0  0  0  0  0  0  0  0  0  0  0  0
    3.6813    1.0412   21.0286 H   0  0  0  0  0  0  0  0  0  0  0  0
    4.6090   -0.2279   21.7266 H   0  0  0  0  0  0  0  0  0  0  0  0
    5.8474    0.1241   19.2818 H   0  0  0  0  0  0  0  0  0  0  0  0
    7.7871    0.2534   18.6953 H   0  0  0  0  0  0  0  0  0  0  0  0
    8.5080    1.0437   19.9917 H   0  0  0  0  0  0  0  0  0  0  0  0
    6.9590    4.0751   19.5519 H   0  0  0  0  0  0  0  0  0  0  0  0
    8.4893    5.5556   17.9455 H   0  0  0  0  0  0  0  0  0  0  0  0
    7.9487    2.0823   15.5161 H   0  0  0  0  0  0  0  0  0  0  0  0
    7.6549   -0.1582   15.9073 H   0  0  0  0  0  0  0  0  0  0  0  0
    8.8714   -0.1359   17.1686 H   0  0  0  0  0  0  0  0  0  0  0  0
    9.2988   -1.2639   14.6950 H   0  0  0  0  0  0  0  0  0  0  0  0
   10.5526   -0.7898   15.8231 H   0  0  0  0  0  0  0  0  0  0  0  0
   11.1530    0.5890   13.9646 H   0  0  0  0  0  0  0  0  0  0  0  0
    9.4608    0.8568   13.5190 H   0  0  0  0  0  0  0  0  0  0  0  0
   10.0195    2.8688   14.7286 H   0  0  0  0  0  0  0  0  0  0  0  0
   10.9364    1.9622   15.9339 H   0  0  0  0  0  0  0  0  0  0  0  0
    3.1899    2.3418   25.6524 H   0  0  0  0  0  0  0  0  0  0  0  0
    3.4812    3.9082   24.9398 H   0  0  0  0  0  0  0  0  0  0  0  0
    0.9100    2.5570   25.8206 H   0  0  0  0  0  0  0  0  0  0  0  0
    1.4832    4.1882   26.1015 H   0  0  0  0  0  0  0  0  0  0  0  0
   -0.0650    3.0796   23.7848 H   0  0  0  0  0  0  0  0  0  0  0  0
   -0.2045    4.6368   24.5782 H   0  0  0  0  0  0  0  0  0  0  0  0
    0.7466    4.8464   22.2747 H   0  0  0  0  0  0  0  0  0  0  0  0
    1.8570    5.4246   23.5093 H   0  0  0  0  0  0  0  0  0  0  0  0
    3.3337    4.2005   22.3628 H   0  0  0  0  0  0  0  0  0  0  0  0
    2.1056    3.1287   21.6525 H   0  0  0  0  0  0  0  0  0  0  0  0
  1  2  1  0
  2  3  1  0
  3  4  1  0
  4  5  1  0
  5  6  1  0
  6  7  2  0
  7  8  1  0
  8  9  2  0
  9 10  1  0
 10 11  1  0
 11 12  1  0
 12 13  1  0
 13 14  1  0
 14 15  1  0
  2 16  1  0
 16 17  1  0
 17 18  1  0
 18 19  1  0
 19 20  1  0
 20 21  1  0
 10  6  1  0
 15 11  1  0
 21 16  1  0
  1 22  1  0
  1 23  1  0
  1 24  1  0
  2 25  1  0
  3 26  1  0
  3 27  1  0
  4 28  1  0
  5 29  1  0
  5 30  1  0
  7 31  1  0
  8 32  1  0
 11 33  1  0
 12 34  1  0
 12 35  1  0
 13 36  1  0
 13 37  1  0
 14 38  1  0
 14 39  1  0
 15 40  1  0
 15 41  1  0
 17 42  1  0
 17 43  1  0
 18 44  1  0
 18 45  1  0
 19 46  1  0
 19 47  1  0
 20 48  1  0
 20 49  1  0
 21 50  1  0
 21 51  1  0
M  END
>  <Energy>  (1144) 
330.3429993807564

>  <compound_id>  (1144) 
8649

>  <target_id>  (1144) 
1

>  <reference_id>  (1144) 
44

>  <inspiration_ids>  (1144) 
[81, 44]

>  <energy_score>  (1144) 
257.700041801851

>  <distance_score>  (1144) 
6.485628414389221

>  <path>  (1144) 
/opt/xchem-fragalysis-2/maxwin/BulkDock/SCRATCH/511016/C8649-P44/C8649-P44.minimised.mol

>  <scratch_subdir>  (1144) 
/opt/xchem-fragalysis-2/maxwin/BulkDock/SCRATCH/511016/C8649-P44

>  <fragmenstein_runtime>  (1144) 
8.186285018920898

>  <fragmenstein_outcome>  (1144) 
too moved

>  <fragmenstein_mode>  (1144) 
expansion

>  <fragmenstein_error>  (1144) 


$$$$
C8651-P81
     RDKit          3D

 51 53  0  0  0  0  0  0  0  0999 V2000
    3.3032   -2.4936   24.3883 C   0  0  0  0  0  0  0  0  0  0  0  0
    4.5232   -1.6628   24.2578 C   0  0  0  0  0  0  0  0  0  0  0  0
    5.3128   -1.4924   22.7658 N   0  0  0  0  0  0  0  0  0  0  0  0
    5.5701   -0.1074   21.7776 C   0  0  0  0  0  0  0  0  0  0  0  0
    5.1113    0.9695   21.9927 O   0  0  0  0  0  0  0  0  0  0  0  0
    6.7871   -0.4937   20.4107 N   0  0  0  0  0  0  0  0  0  0  0  0
    7.3839    0.4616   19.1698 C   0  0  0  0  0  0  0  0  0  0  0  0
    7.6806    1.9825   18.3282 C   0  0  0  0  0  0  0  0  0  0  0  0
    8.5164    2.0393   17.2699 N   0  0  0  0  0  0  0  0  0  0  0  0
    8.7956    0.7775   16.9955 N   0  0  0  0  0  0  0  0  0  0  0  0
    9.5111    0.5074   15.7516 C   0  0  0  0  0  0  0  0  0  0  0  0
   10.5538   -0.6187   15.7238 C   0  0  0  0  0  0  0  0  0  0  0  0
   11.4953   -0.3115   14.5551 C   0  0  0  0  0  0  0  0  0  0  0  0
   11.1529    1.0981   14.0972 C   0  0  0  0  0  0  0  0  0  0  0  0
   10.3645    1.6907   15.2529 C   0  0  0  0  0  0  0  0  0  0  0  0
    7.9759   -0.1205   17.7850 C   0  0  0  0  0  0  0  0  0  0  0  0
    4.6289   -0.9820   25.8640 C   0  0  0  0  0  0  0  0  0  0  0  0
    5.6390   -1.2287   26.4820 O   0  0  0  0  0  0  0  0  0  0  0  0
    3.4272   -0.2838   26.2731 N   0  0  0  0  0  0  0  0  0  0  0  0
    3.5534    1.1878   25.9670 C   0  0  0  0  0  0  0  0  0  0  0  0
    2.3567    2.1730   25.9240 C   0  0  0  0  0  0  0  0  0  0  0  0
    1.5653    2.1898   27.2079 C   0  0  0  0  0  0  0  0  0  0  0  0
    1.5946    0.7954   27.7745 C   0  0  0  0  0  0  0  0  0  0  0  0
    3.0149    0.2496   27.6136 C   0  0  0  0  0  0  0  0  0  0  0  0
    3.4518   -3.2799   25.1246 H   0  0  0  0  0  0  0  0  0  0  0  0
    2.5861   -1.8512   24.8672 H   0  0  0  0  0  0  0  0  0  0  0  0
    2.8937   -2.8713   23.4626 H   0  0  0  0  0  0  0  0  0  0  0  0
    5.3157   -2.3507   24.5445 H   0  0  0  0  0  0  0  0  0  0  0  0
    5.7210   -2.2779   22.3332 H   0  0  0  0  0  0  0  0  0  0  0  0
    6.9569   -1.4819   20.3801 H   0  0  0  0  0  0  0  0  0  0  0  0
    7.2488    2.9619   18.4757 H   0  0  0  0  0  0  0  0  0  0  0  0
    8.7459    0.2614   15.0145 H   0  0  0  0  0  0  0  0  0  0  0  0
   10.0921   -1.6041   15.6182 H   0  0  0  0  0  0  0  0  0  0  0  0
   11.1680   -0.6228   16.6245 H   0  0  0  0  0  0  0  0  0  0  0  0
   11.3866   -1.0308   13.7397 H   0  0  0  0  0  0  0  0  0  0  0  0
   12.5374   -0.3672   14.8905 H   0  0  0  0  0  0  0  0  0  0  0  0
   12.0441    1.6852   13.8575 H   0  0  0  0  0  0  0  0  0  0  0  0
   10.5276    1.0556   13.1983 H   0  0  0  0  0  0  0  0  0  0  0  0
    9.7736    2.5554   14.9384 H   0  0  0  0  0  0  0  0  0  0  0  0
   11.0512    2.0318   16.0392 H   0  0  0  0  0  0  0  0  0  0  0  0
    7.3395   -0.5440   17.0123 H   0  0  0  0  0  0  0  0  0  0  0  0
    3.8465    1.1517   24.9167 H   0  0  0  0  0  0  0  0  0  0  0  0
    4.4326    1.6290   26.4677 H   0  0  0  0  0  0  0  0  0  0  0  0
    1.6990    1.9423   25.0846 H   0  0  0  0  0  0  0  0  0  0  0  0
    2.7328    3.1819   25.7136 H   0  0  0  0  0  0  0  0  0  0  0  0
    0.5414    2.5427   27.0488 H   0  0  0  0  0  0  0  0  0  0  0  0
    2.0393    2.8804   27.9162 H   0  0  0  0  0  0  0  0  0  0  0  0
    1.3157    0.8221   28.8339 H   0  0  0  0  0  0  0  0  0  0  0  0
    0.8730    0.1463   27.2686 H   0  0  0  0  0  0  0  0  0  0  0  0
    3.0097   -0.6800   28.2058 H   0  0  0  0  0  0  0  0  0  0  0  0
    3.7914    0.8203   28.1540 H   0  0  0  0  0  0  0  0  0  0  0  0
  1  2  1  0
  2  3  1  0
  3  4  1  0
  4  5  2  0
  4  6  1  0
  6  7  1  0
  7  8  1  0
  8  9  2  0
  9 10  1  0
 10 11  1  0
 11 12  1  0
 12 13  1  0
 13 14  1  0
 14 15  1  0
 10 16  1  0
  2 17  1  0
 17 18  2  0
 17 19  1  0
 19 20  1  0
 20 21  1  0
 21 22  1  0
 22 23  1  0
 23 24  1  0
 16  7  2  0
 24 19  1  0
 15 11  1  0
  1 25  1  0
  1 26  1  0
  1 27  1  0
  2 28  1  0
  3 29  1  0
  6 30  1  0
  8 31  1  0
 11 32  1  0
 12 33  1  0
 12 34  1  0
 13 35  1  0
 13 36  1  0
 14 37  1  0
 14 38  1  0
 15 39  1  0
 15 40  1  0
 16 41  1  0
 20 42  1  0
 20 43  1  0
 21 44  1  0
 21 45  1  0
 22 46  1  0
 22 47  1  0
 23 48  1  0
 23 49  1  0
 24 50  1  0
 24 51  1  0
M  END
>  <Energy>  (1145) 
354.45394294213287

>  <compound_id>  (1145) 
8651

>  <target_id>  (1145) 
1

>  <reference_id>  (1145) 
81

>  <inspiration_ids>  (1145) 
[81, 44]

>  <energy_score>  (1145) 
333.405101911236

>  <distance_score>  (1145) 
5.5547711805135

>  <path>  (1145) 
/opt/xchem-fragalysis-2/maxwin/BulkDock/SCRATCH/511016/C8651-P81/C8651-P81.minimised.mol

>  <scratch_subdir>  (1145) 
/opt/xchem-fragalysis-2/maxwin/BulkDock/SCRATCH/511016/C8651-P81

>  <fragmenstein_runtime>  (1145) 
11.847914695739746

>  <fragmenstein_outcome>  (1145) 
too moved

>  <fragmenstein_mode>  (1145) 
expansion

>  <fragmenstein_error>  (1145) 


$$$$
C8651-P44
     RDKit          3D

 51 53  0  0  0  0  0  0  0  0999 V2000
    4.9284   -0.3150   23.2261 C   0  0  0  0  0  0  0  0  0  0  0  0
    4.6937    0.9061   21.7213 C   0  0  0  0  0  0  0  0  0  0  0  0
    6.1513    0.4209   20.2748 N   0  0  0  0  0  0  0  0  0  0  0  0
    7.3713    1.4202   19.4985 C   0  0  0  0  0  0  0  0  0  0  0  0
    7.6324    2.5519   19.7316 O   0  0  0  0  0  0  0  0  0  0  0  0
    7.8629    0.5403   18.4758 N   0  0  0  0  0  0  0  0  0  0  0  0
    8.7135    0.7801   17.4021 C   0  0  0  0  0  0  0  0  0  0  0  0
    9.0634    0.0198   16.2603 C   0  0  0  0  0  0  0  0  0  0  0  0
    9.8326    0.6925   15.4037 N   0  0  0  0  0  0  0  0  0  0  0  0
    9.7891    1.9583   15.8589 N   0  0  0  0  0  0  0  0  0  0  0  0
    9.9697    3.0789   14.9390 C   0  0  0  0  0  0  0  0  0  0  0  0
   10.7231    2.7414   13.6427 C   0  0  0  0  0  0  0  0  0  0  0  0
   12.1785    2.9725   14.0115 C   0  0  0  0  0  0  0  0  0  0  0  0
   12.1349    4.2491   14.8364 C   0  0  0  0  0  0  0  0  0  0  0  0
   10.7577    4.2732   15.5027 C   0  0  0  0  0  0  0  0  0  0  0  0
    9.2258    2.0242   17.1060 C   0  0  0  0  0  0  0  0  0  0  0  0
    4.0153    2.0427   23.2230 C   0  0  0  0  0  0  0  0  0  0  0  0
    4.5672    1.8799   24.2871 O   0  0  0  0  0  0  0  0  0  0  0  0
    2.8531    2.8750   22.9072 N   0  0  0  0  0  0  0  0  0  0  0  0
    3.3068    4.3180   22.4848 C   0  0  0  0  0  0  0  0  0  0  0  0
    2.3282    4.9915   21.5099 C   0  0  0  0  0  0  0  0  0  0  0  0
    1.0790    5.4127   22.2596 C   0  0  0  0  0  0  0  0  0  0  0  0
    0.6811    4.2750   23.1676 C   0  0  0  0  0  0  0  0  0  0  0  0
    1.9368    3.6747   23.8026 C   0  0  0  0  0  0  0  0  0  0  0  0
    4.2017   -0.3679   24.0836 H   0  0  0  0  0  0  0  0  0  0  0  0
    5.6026    0.1148   23.9579 H   0  0  0  0  0  0  0  0  0  0  0  0
    4.8916   -1.3570   22.9201 H   0  0  0  0  0  0  0  0  0  0  0  0
    3.7804    0.8159   21.2083 H   0  0  0  0  0  0  0  0  0  0  0  0
    6.2149   -0.5190   19.9301 H   0  0  0  0  0  0  0  0  0  0  0  0
    7.3647   -0.3194   18.5229 H   0  0  0  0  0  0  0  0  0  0  0  0
    8.7968   -0.9869   15.9774 H   0  0  0  0  0  0  0  0  0  0  0  0
    8.9483    3.4013   14.7051 H   0  0  0  0  0  0  0  0  0  0  0  0
   10.5501    1.7341   13.2537 H   0  0  0  0  0  0  0  0  0  0  0  0
   10.4298    3.4486   12.8558 H   0  0  0  0  0  0  0  0  0  0  0  0
   12.5554    2.1397   14.6157 H   0  0  0  0  0  0  0  0  0  0  0  0
   12.8208    3.0714   13.1316 H   0  0  0  0  0  0  0  0  0  0  0  0
   12.9476    4.2951   15.5658 H   0  0  0  0  0  0  0  0  0  0  0  0
   12.2397    5.1226   14.1817 H   0  0  0  0  0  0  0  0  0  0  0  0
   10.2526    5.2072   15.2250 H   0  0  0  0  0  0  0  0  0  0  0  0
   10.8375    4.2826   16.5903 H   0  0  0  0  0  0  0  0  0  0  0  0
    9.1267    2.9686   17.6241 H   0  0  0  0  0  0  0  0  0  0  0  0
    3.5796    4.9810   23.3274 H   0  0  0  0  0  0  0  0  0  0  0  0
    4.3013    4.3073   22.0382 H   0  0  0  0  0  0  0  0  0  0  0  0
    2.0670    4.3007   20.6996 H   0  0  0  0  0  0  0  0  0  0  0  0
    2.7964    5.8707   21.0538 H   0  0  0  0  0  0  0  0  0  0  0  0
    0.2706    5.6786   21.5710 H   0  0  0  0  0  0  0  0  0  0  0  0
    1.2996    6.3022   22.8626 H   0  0  0  0  0  0  0  0  0  0  0  0
   -0.0066    4.6317   23.9423 H   0  0  0  0  0  0  0  0  0  0  0  0
    0.1470    3.5136   22.5886 H   0  0  0  0  0  0  0  0  0  0  0  0
    1.5442    2.8806   24.4551 H   0  0  0  0  0  0  0  0  0  0  0  0
    2.4235    4.2952   24.5742 H   0  0  0  0  0  0  0  0  0  0  0  0
  1  2  1  0
  2  3  1  0
  3  4  1  0
  4  5  2  0
  4  6  1  0
  6  7  1  0
  7  8  1  0
  8  9  2  0
  9 10  1  0
 10 11  1  0
 11 12  1  0
 12 13  1  0
 13 14  1  0
 14 15  1  0
 10 16  1  0
  2 17  1  0
 17 18  2  0
 17 19  1  0
 19 20  1  0
 20 21  1  0
 21 22  1  0
 22 23  1  0
 23 24  1  0
 16  7  2  0
 24 19  1  0
 15 11  1  0
  1 25  1  0
  1 26  1  0
  1 27  1  0
  2 28  1  0
  3 29  1  0
  6 30  1  0
  8 31  1  0
 11 32  1  0
 12 33  1  0
 12 34  1  0
 13 35  1  0
 13 36  1  0
 14 37  1  0
 14 38  1  0
 15 39  1  0
 15 40  1  0
 16 41  1  0
 20 42  1  0
 20 43  1  0
 21 44  1  0
 21 45  1  0
 22 46  1  0
 22 47  1  0
 23 48  1  0
 23 49  1  0
 24 50  1  0
 24 51  1  0
M  END
>  <Energy>  (1146) 
349.1045075196472

>  <compound_id>  (1146) 
8651

>  <target_id>  (1146) 
1

>  <reference_id>  (1146) 
44

>  <inspiration_ids>  (1146) 
[81, 44]

>  <energy_score>  (1146) 
328.0556664887566

>  <distance_score>  (1146) 
6.273173982473396

>  <path>  (1146) 
/opt/xchem-fragalysis-2/maxwin/BulkDock/SCRATCH/511016/C8651-P44/C8651-P44.minimised.mol

>  <scratch_subdir>  (1146) 
/opt/xchem-fragalysis-2/maxwin/BulkDock/SCRATCH/511016/C8651-P44

>  <fragmenstein_runtime>  (1146) 
9.554905414581299

>  <fragmenstein_outcome>  (1146) 
too moved

>  <fragmenstein_mode>  (1146) 
expansion

>  <fragmenstein_error>  (1146) 


$$$$
C8652-P81
     RDKit          3D

 57 59  0  0  0  0  0  0  0  0999 V2000
    5.0495   -1.3081   26.3123 C   0  0  0  0  0  0  0  0  0  0  0  0
    4.3645   -0.9288   24.9546 C   0  0  0  0  0  0  0  0  0  0  0  0
    5.1503   -1.4494   23.2512 C   0  0  0  0  0  0  0  0  0  0  0  0
    5.7490   -0.6060   21.6585 N   0  0  0  0  0  0  0  0  0  0  0  0
    7.1904   -0.2258   20.3293 C   0  0  0  0  0  0  0  0  0  0  0  0
    7.5753    1.4112   20.9908 C   0  0  0  0  0  0  0  0  0  0  0  0
    7.7201   -0.0257   18.4107 C   0  0  0  0  0  0  0  0  0  0  0  0
    7.8075   -0.4149   16.8912 C   0  0  0  0  0  0  0  0  0  0  0  0
    8.8894   -0.0203   16.2060 N   0  0  0  0  0  0  0  0  0  0  0  0
    9.0032    1.2156   16.6489 N   0  0  0  0  0  0  0  0  0  0  0  0
    9.9802    2.1564   16.1440 C   0  0  0  0  0  0  0  0  0  0  0  0
    9.4315    3.5554   15.8547 C   0  0  0  0  0  0  0  0  0  0  0  0
   10.5231    4.1818   15.0038 C   0  0  0  0  0  0  0  0  0  0  0  0
   10.9688    3.0545   14.0850 C   0  0  0  0  0  0  0  0  0  0  0  0
   10.7239    1.7568   14.8572 C   0  0  0  0  0  0  0  0  0  0  0  0
    8.1558    1.4040   17.6987 C   0  0  0  0  0  0  0  0  0  0  0  0
    3.8364    0.5788   25.3242 C   0  0  0  0  0  0  0  0  0  0  0  0
    2.7163    0.8910   26.2614 N   0  0  0  0  0  0  0  0  0  0  0  0
    2.4635    0.0787   27.4344 C   0  0  0  0  0  0  0  0  0  0  0  0
    1.0278    0.2878   27.9613 C   0  0  0  0  0  0  0  0  0  0  0  0
    0.4677    1.6905   27.7194 C   0  0  0  0  0  0  0  0  0  0  0  0
    1.5963    2.7006   27.6201 C   0  0  0  0  0  0  0  0  0  0  0  0
    2.5685    2.3347   26.4910 C   0  0  0  0  0  0  0  0  0  0  0  0
    4.9609   -0.5326   27.0803 H   0  0  0  0  0  0  0  0  0  0  0  0
    4.5317   -2.1619   26.7597 H   0  0  0  0  0  0  0  0  0  0  0  0
    6.1291   -1.4586   26.2899 H   0  0  0  0  0  0  0  0  0  0  0  0
    3.4627   -1.5628   24.9435 H   0  0  0  0  0  0  0  0  0  0  0  0
    5.7932   -2.2447   23.5118 H   0  0  0  0  0  0  0  0  0  0  0  0
    4.2892   -2.0037   23.0031 H   0  0  0  0  0  0  0  0  0  0  0  0
    5.7323   -1.5360   21.1969 H   0  0  0  0  0  0  0  0  0  0  0  0
    6.4126    0.0434   19.6558 H   0  0  0  0  0  0  0  0  0  0  0  0
    6.8685    1.9160   21.6758 H   0  0  0  0  0  0  0  0  0  0  0  0
    8.4396    1.5706   21.6415 H   0  0  0  0  0  0  0  0  0  0  0  0
    7.4372    1.8163   20.0382 H   0  0  0  0  0  0  0  0  0  0  0  0
    7.1673   -1.0722   16.3141 H   0  0  0  0  0  0  0  0  0  0  0  0
   10.7292    2.2547   16.9399 H   0  0  0  0  0  0  0  0  0  0  0  0
    8.4862    3.5146   15.3048 H   0  0  0  0  0  0  0  0  0  0  0  0
    9.2570    4.1301   16.7703 H   0  0  0  0  0  0  0  0  0  0  0  0
   11.3589    4.4989   15.6389 H   0  0  0  0  0  0  0  0  0  0  0  0
   10.1695    5.0552   14.4483 H   0  0  0  0  0  0  0  0  0  0  0  0
   10.3666    3.0588   13.1700 H   0  0  0  0  0  0  0  0  0  0  0  0
   12.0162    3.1631   13.7867 H   0  0  0  0  0  0  0  0  0  0  0  0
   10.1638    1.0557   14.2295 H   0  0  0  0  0  0  0  0  0  0  0  0
   11.6726    1.2674   15.1070 H   0  0  0  0  0  0  0  0  0  0  0  0
    7.9457    2.4001   18.0470 H   0  0  0  0  0  0  0  0  0  0  0  0
    3.6175    1.1446   24.4201 H   0  0  0  0  0  0  0  0  0  0  0  0
    4.6936    1.0587   25.8007 H   0  0  0  0  0  0  0  0  0  0  0  0
    3.1830    0.3161   28.2273 H   0  0  0  0  0  0  0  0  0  0  0  0
    2.5590   -0.9883   27.2121 H   0  0  0  0  0  0  0  0  0  0  0  0
    1.0253    0.0768   29.0380 H   0  0  0  0  0  0  0  0  0  0  0  0
    0.3487   -0.4431   27.5077 H   0  0  0  0  0  0  0  0  0  0  0  0
   -0.1120    1.6998   26.7884 H   0  0  0  0  0  0  0  0  0  0  0  0
   -0.2253    1.9610   28.5237 H   0  0  0  0  0  0  0  0  0  0  0  0
    2.1377    2.7298   28.5744 H   0  0  0  0  0  0  0  0  0  0  0  0
    1.1933    3.7054   27.4510 H   0  0  0  0  0  0  0  0  0  0  0  0
    2.2109    2.7937   25.5610 H   0  0  0  0  0  0  0  0  0  0  0  0
    3.5360    2.7953   26.7255 H   0  0  0  0  0  0  0  0  0  0  0  0
  1  2  1  0
  2  3  1  0
  3  4  1  0
  4  5  1  0
  5  6  1  0
  5  7  1  0
  7  8  1  0
  8  9  2  0
  9 10  1  0
 10 11  1  0
 11 12  1  0
 12 13  1  0
 13 14  1  0
 14 15  1  0
 10 16  1  0
  2 17  1  0
 17 18  1  0
 18 19  1  0
 19 20  1  0
 20 21  1  0
 21 22  1  0
 22 23  1  0
 16  7  2  0
 23 18  1  0
 15 11  1  0
  1 24  1  0
  1 25  1  0
  1 26  1  0
  2 27  1  0
  3 28  1  0
  3 29  1  0
  4 30  1  0
  5 31  1  0
  6 32  1  0
  6 33  1  0
  6 34  1  0
  8 35  1  0
 11 36  1  0
 12 37  1  0
 12 38  1  0
 13 39  1  0
 13 40  1  0
 14 41  1  0
 14 42  1  0
 15 43  1  0
 15 44  1  0
 16 45  1  0
 17 46  1  0
 17 47  1  0
 19 48  1  0
 19 49  1  0
 20 50  1  0
 20 51  1  0
 21 52  1  0
 21 53  1  0
 22 54  1  0
 22 55  1  0
 23 56  1  0
 23 57  1  0
M  END
>  <Energy>  (1147) 
557.27915189561986

>  <compound_id>  (1147) 
8652

>  <target_id>  (1147) 
1

>  <reference_id>  (1147) 
81

>  <inspiration_ids>  (1147) 
[81, 44]

>  <energy_score>  (1147) 
479.6342394218515

>  <distance_score>  (1147) 
5.1995527987611405

>  <path>  (1147) 
/opt/xchem-fragalysis-2/maxwin/BulkDock/SCRATCH/511016/C8652-P81/C8652-P81.minimised.mol

>  <scratch_subdir>  (1147) 
/opt/xchem-fragalysis-2/maxwin/BulkDock/SCRATCH/511016/C8652-P81

>  <fragmenstein_runtime>  (1147) 
8.761780738830566

>  <fragmenstein_outcome>  (1147) 
too moved

>  <fragmenstein_mode>  (1147) 
expansion

>  <fragmenstein_error>  (1147) 


$$$$
C8652-P44
     RDKit          3D

 57 59  0  0  0  0  0  0  0  0999 V2000
    4.6347   -1.9693   22.9826 C   0  0  0  0  0  0  0  0  0  0  0  0
    3.1137   -2.2582   23.2950 C   0  0  0  0  0  0  0  0  0  0  0  0
    1.5211   -2.8576   22.1297 C   0  0  0  0  0  0  0  0  0  0  0  0
    0.5607   -2.3254   20.4669 N   0  0  0  0  0  0  0  0  0  0  0  0
    1.2382   -0.6520   19.5749 C   0  0  0  0  0  0  0  0  0  0  0  0
    1.9107    1.1477   20.7180 C   0  0  0  0  0  0  0  0  0  0  0  0
    1.9033   -1.3332   17.9101 C   0  0  0  0  0  0  0  0  0  0  0  0
    2.3497   -2.8096   17.2525 C   0  0  0  0  0  0  0  0  0  0  0  0
    3.7342   -2.9053   16.8537 N   0  0  0  0  0  0  0  0  0  0  0  0
    4.2201   -1.6102   17.2588 N   0  0  0  0  0  0  0  0  0  0  0  0
    5.8643   -0.7988   17.1969 C   0  0  0  0  0  0  0  0  0  0  0  0
    7.0979    0.0363   18.3176 C   0  0  0  0  0  0  0  0  0  0  0  0
    8.1910    0.7046   17.4416 C   0  0  0  0  0  0  0  0  0  0  0  0
    8.1439    0.1621   16.0230 C   0  0  0  0  0  0  0  0  0  0  0  0
    7.0803   -0.9453   15.8731 C   0  0  0  0  0  0  0  0  0  0  0  0
    2.8535   -1.1302   16.9988 C   0  0  0  0  0  0  0  0  0  0  0  0
    3.8091   -1.1541   24.8109 C   0  0  0  0  0  0  0  0  0  0  0  0
    3.0599   -0.2535   25.7717 N   0  0  0  0  0  0  0  0  0  0  0  0
    2.9379   -0.7471   27.1454 C   0  0  0  0  0  0  0  0  0  0  0  0
    1.7838   -0.0134   27.8510 C   0  0  0  0  0  0  0  0  0  0  0  0
    1.6702    1.4646   27.4664 C   0  0  0  0  0  0  0  0  0  0  0  0
    2.9931    1.9957   26.9318 C   0  0  0  0  0  0  0  0  0  0  0  0
    3.5653    1.1366   25.7863 C   0  0  0  0  0  0  0  0  0  0  0  0
    4.8231   -0.9540   22.6590 H   0  0  0  0  0  0  0  0  0  0  0  0
    5.1230   -2.6086   22.2359 H   0  0  0  0  0  0  0  0  0  0  0  0
    5.2856   -2.2545   23.8321 H   0  0  0  0  0  0  0  0  0  0  0  0
    2.4548   -1.4805   23.4087 H   0  0  0  0  0  0  0  0  0  0  0  0
    0.6241   -2.8739   22.7405 H   0  0  0  0  0  0  0  0  0  0  0  0
    1.6244   -3.9060   21.8895 H   0  0  0  0  0  0  0  0  0  0  0  0
   -0.3769   -2.0670   20.8310 H   0  0  0  0  0  0  0  0  0  0  0  0
    0.3150   -0.5285   18.9478 H   0  0  0  0  0  0  0  0  0  0  0  0
    2.9039    1.2202   21.1823 H   0  0  0  0  0  0  0  0  0  0  0  0
    2.0687    1.9685   19.9157 H   0  0  0  0  0  0  0  0  0  0  0  0
    1.3030    2.0159   21.1255 H   0  0  0  0  0  0  0  0  0  0  0  0
    1.7858   -3.7351   17.3540 H   0  0  0  0  0  0  0  0  0  0  0  0
    5.9423   -1.5331   17.9429 H   0  0  0  0  0  0  0  0  0  0  0  0
    6.7086    0.7794   18.9596 H   0  0  0  0  0  0  0  0  0  0  0  0
    7.5712   -0.5825   19.0777 H   0  0  0  0  0  0  0  0  0  0  0  0
    9.1814    0.6097   17.8735 H   0  0  0  0  0  0  0  0  0  0  0  0
    8.0564    1.7953   17.4206 H   0  0  0  0  0  0  0  0  0  0  0  0
    7.9890    1.0062   15.3541 H   0  0  0  0  0  0  0  0  0  0  0  0
    9.1279   -0.2403   15.7504 H   0  0  0  0  0  0  0  0  0  0  0  0
    6.6928   -1.1526   14.8765 H   0  0  0  0  0  0  0  0  0  0  0  0
    7.6958   -1.8516   15.8910 H   0  0  0  0  0  0  0  0  0  0  0  0
    2.5986   -1.2330   15.9259 H   0  0  0  0  0  0  0  0  0  0  0  0
    4.6173   -0.4900   24.4747 H   0  0  0  0  0  0  0  0  0  0  0  0
    4.2965   -1.9175   25.4502 H   0  0  0  0  0  0  0  0  0  0  0  0
    3.8786   -0.6006   27.6924 H   0  0  0  0  0  0  0  0  0  0  0  0
    2.7301   -1.8222   27.1845 H   0  0  0  0  0  0  0  0  0  0  0  0
    1.9320   -0.0986   28.9344 H   0  0  0  0  0  0  0  0  0  0  0  0
    0.8301   -0.5083   27.6304 H   0  0  0  0  0  0  0  0  0  0  0  0
    0.8918    1.5885   26.7052 H   0  0  0  0  0  0  0  0  0  0  0  0
    1.3450    2.0516   28.3328 H   0  0  0  0  0  0  0  0  0  0  0  0
    3.7181    2.0145   27.7560 H   0  0  0  0  0  0  0  0  0  0  0  0
    2.8745    3.0315   26.5942 H   0  0  0  0  0  0  0  0  0  0  0  0
    3.3215    1.6172   24.8321 H   0  0  0  0  0  0  0  0  0  0  0  0
    4.6595    1.1544   25.8771 H   0  0  0  0  0  0  0  0  0  0  0  0
  1  2  1  0
  2  3  1  0
  3  4  1  0
  4  5  1  0
  5  6  1  0
  5  7  1  0
  7  8  1  0
  8  9  2  0
  9 10  1  0
 10 11  1  0
 11 12  1  0
 12 13  1  0
 13 14  1  0
 14 15  1  0
 10 16  1  0
  2 17  1  0
 17 18  1  0
 18 19  1  0
 19 20  1  0
 20 21  1  0
 21 22  1  0
 22 23  1  0
 16  7  2  0
 23 18  1  0
 15 11  1  0
  1 24  1  0
  1 25  1  0
  1 26  1  0
  2 27  1  0
  3 28  1  0
  3 29  1  0
  4 30  1  0
  5 31  1  0
  6 32  1  0
  6 33  1  0
  6 34  1  0
  8 35  1  0
 11 36  1  0
 12 37  1  0
 12 38  1  0
 13 39  1  0
 13 40  1  0
 14 41  1  0
 14 42  1  0
 15 43  1  0
 15 44  1  0
 16 45  1  0
 17 46  1  0
 17 47  1  0
 19 48  1  0
 19 49  1  0
 20 50  1  0
 20 51  1  0
 21 52  1  0
 21 53  1  0
 22 54  1  0
 22 55  1  0
 23 56  1  0
 23 57  1  0
M  END
>  <Energy>  (1148) 
978.54361262107898

>  <compound_id>  (1148) 
8652

>  <target_id>  (1148) 
1

>  <reference_id>  (1148) 
44

>  <inspiration_ids>  (1148) 
[81, 44]

>  <energy_score>  (1148) 
900.8987001473192

>  <distance_score>  (1148) 
7.493663675240051

>  <path>  (1148) 
/opt/xchem-fragalysis-2/maxwin/BulkDock/SCRATCH/511016/C8652-P44/C8652-P44.minimised.mol

>  <scratch_subdir>  (1148) 
/opt/xchem-fragalysis-2/maxwin/BulkDock/SCRATCH/511016/C8652-P44

>  <fragmenstein_runtime>  (1148) 
9.902409553527832

>  <fragmenstein_outcome>  (1148) 
too moved

>  <fragmenstein_mode>  (1148) 
expansion

>  <fragmenstein_error>  (1148) 


$$$$
C8653-P81
     RDKit          3D

 49 51  0  0  0  0  0  0  0  0999 V2000
    3.3009   -3.0972   25.3665 O   0  0  0  0  0  0  0  0  0  0  0  0
    3.5649   -1.9542   25.5908 C   0  0  0  0  0  0  0  0  0  0  0  0
    4.6794   -1.2761   24.8256 C   0  0  0  0  0  0  0  0  0  0  0  0
    4.9882   -1.5769   23.2082 C   0  0  0  0  0  0  0  0  0  0  0  0
    5.5138   -0.0084   21.6203 S   0  0  0  0  0  0  0  0  0  0  0  0
    7.1601   -0.2462   19.9112 C   0  0  0  0  0  0  0  0  0  0  0  0
    7.7822   -0.0155   18.0661 C   0  0  0  0  0  0  0  0  0  0  0  0
    7.6616   -0.4887   16.6524 C   0  0  0  0  0  0  0  0  0  0  0  0
    8.8702   -0.2603   15.9604 C   0  0  0  0  0  0  0  0  0  0  0  0
    9.5511    0.6461   16.6378 N   0  0  0  0  0  0  0  0  0  0  0  0
    8.5242    1.2222   17.3773 N   0  0  0  0  0  0  0  0  0  0  0  0
    8.1507    2.5657   16.9094 C   0  0  0  0  0  0  0  0  0  0  0  0
    7.0342    3.4712   17.4384 C   0  0  0  0  0  0  0  0  0  0  0  0
    7.4035    4.8590   16.9280 C   0  0  0  0  0  0  0  0  0  0  0  0
    8.9064    4.9159   17.1036 C   0  0  0  0  0  0  0  0  0  0  0  0
    9.3864    3.5032   16.7938 C   0  0  0  0  0  0  0  0  0  0  0  0
    3.0443   -1.0487   26.5913 N   0  0  0  0  0  0  0  0  0  0  0  0
    3.8901   -1.1179   27.8517 C   0  0  0  0  0  0  0  0  0  0  0  0
    3.8880    0.1965   28.6622 C   0  0  0  0  0  0  0  0  0  0  0  0
    2.5302    0.4538   29.2845 C   0  0  0  0  0  0  0  0  0  0  0  0
    1.4788    0.0679   28.2742 C   0  0  0  0  0  0  0  0  0  0  0  0
    1.9285   -1.2259   27.5900 C   0  0  0  0  0  0  0  0  0  0  0  0
    4.5028   -0.2114   25.0260 H   0  0  0  0  0  0  0  0  0  0  0  0
    5.5405   -1.6583   25.3807 H   0  0  0  0  0  0  0  0  0  0  0  0
    5.7191   -2.3172   23.0910 H   0  0  0  0  0  0  0  0  0  0  0  0
    4.0564   -2.0781   23.0743 H   0  0  0  0  0  0  0  0  0  0  0  0
    7.6648   -1.0651   20.2930 H   0  0  0  0  0  0  0  0  0  0  0  0
    7.6283    0.6410   20.3109 H   0  0  0  0  0  0  0  0  0  0  0  0
    6.8873   -1.1313   16.2556 H   0  0  0  0  0  0  0  0  0  0  0  0
    9.2419   -0.6792   15.0317 H   0  0  0  0  0  0  0  0  0  0  0  0
    7.8571    2.3832   15.8737 H   0  0  0  0  0  0  0  0  0  0  0  0
    6.0443    3.2124   17.0618 H   0  0  0  0  0  0  0  0  0  0  0  0
    6.9701    3.4905   18.5156 H   0  0  0  0  0  0  0  0  0  0  0  0
    6.8897    5.6532   17.4773 H   0  0  0  0  0  0  0  0  0  0  0  0
    7.1417    4.9526   15.8672 H   0  0  0  0  0  0  0  0  0  0  0  0
    9.1562    5.1788   18.1373 H   0  0  0  0  0  0  0  0  0  0  0  0
    9.3716    5.6619   16.4523 H   0  0  0  0  0  0  0  0  0  0  0  0
   10.2118    3.2259   17.4556 H   0  0  0  0  0  0  0  0  0  0  0  0
    9.7810    3.4604   15.7704 H   0  0  0  0  0  0  0  0  0  0  0  0
    3.8216   -2.0454   28.4459 H   0  0  0  0  0  0  0  0  0  0  0  0
    4.9265   -1.1899   27.4884 H   0  0  0  0  0  0  0  0  0  0  0  0
    4.1471    1.0281   27.9944 H   0  0  0  0  0  0  0  0  0  0  0  0
    4.6563    0.1585   29.4424 H   0  0  0  0  0  0  0  0  0  0  0  0
    2.4237    1.4964   29.6001 H   0  0  0  0  0  0  0  0  0  0  0  0
    2.4206   -0.1703   30.1799 H   0  0  0  0  0  0  0  0  0  0  0  0
    0.5108   -0.0713   28.7674 H   0  0  0  0  0  0  0  0  0  0  0  0
    1.3587    0.8633   27.5289 H   0  0  0  0  0  0  0  0  0  0  0  0
    1.9594   -2.1206   28.2359 H   0  0  0  0  0  0  0  0  0  0  0  0
    1.0830   -1.4981   26.9587 H   0  0  0  0  0  0  0  0  0  0  0  0
  1  2  2  0
  2  3  1  0
  3  4  1  0
  4  5  1  0
  5  6  1  0
  6  7  1  0
  7  8  2  0
  8  9  1  0
  9 10  2  0
 10 11  1  0
 11 12  1  0
 12 13  1  0
 13 14  1  0
 14 15  1  0
 15 16  1  0
  2 17  1  0
 17 18  1  0
 18 19  1  0
 19 20  1  0
 20 21  1  0
 21 22  1  0
 11  7  1  0
 16 12  1  0
 22 17  1  0
  3 23  1  0
  3 24  1  0
  4 25  1  0
  4 26  1  0
  6 27  1  0
  6 28  1  0
  8 29  1  0
  9 30  1  0
 12 31  1  0
 13 32  1  0
 13 33  1  0
 14 34  1  0
 14 35  1  0
 15 36  1  0
 15 37  1  0
 16 38  1  0
 16 39  1  0
 18 40  1  0
 18 41  1  0
 19 42  1  0
 19 43  1  0
 20 44  1  0
 20 45  1  0
 21 46  1  0
 21 47  1  0
 22 48  1  0
 22 49  1  0
M  END
>  <Energy>  (1149) 
404.34983576454101

>  <compound_id>  (1149) 
8653

>  <target_id>  (1149) 
1

>  <reference_id>  (1149) 
81

>  <inspiration_ids>  (1149) 
[81, 44]

>  <energy_score>  (1149) 
358.12569827558417

>  <distance_score>  (1149) 
5.768375907618932

>  <path>  (1149) 
/opt/xchem-fragalysis-2/maxwin/BulkDock/SCRATCH/511016/C8653-P81/C8653-P81.minimised.mol

>  <scratch_subdir>  (1149) 
/opt/xchem-fragalysis-2/maxwin/BulkDock/SCRATCH/511016/C8653-P81

>  <fragmenstein_runtime>  (1149) 
10.594442129135132

>  <fragmenstein_outcome>  (1149) 
too moved

>  <fragmenstein_mode>  (1149) 
expansion

>  <fragmenstein_error>  (1149) 


$$$$
C8653-P44
     RDKit          3D

 49 51  0  0  0  0  0  0  0  0999 V2000
   15.5822   -0.3244   24.4388 O   0  0  0  0  0  0  0  0  0  0  0  0
   14.5688   -0.2762   23.7900 C   0  0  0  0  0  0  0  0  0  0  0  0
   14.6546   -0.4027   22.2534 C   0  0  0  0  0  0  0  0  0  0  0  0
   15.8255   -1.2829   21.7663 C   0  0  0  0  0  0  0  0  0  0  0  0
   16.1857   -1.2687   19.9204 S   0  0  0  0  0  0  0  0  0  0  0  0
   14.7505   -2.1797   19.3021 C   0  0  0  0  0  0  0  0  0  0  0  0
   14.4963   -2.1994   17.8213 C   0  0  0  0  0  0  0  0  0  0  0  0
   14.5001   -3.3326   17.0184 C   0  0  0  0  0  0  0  0  0  0  0  0
   14.0094   -2.9324   15.7719 C   0  0  0  0  0  0  0  0  0  0  0  0
   13.7225   -1.6360   15.7492 N   0  0  0  0  0  0  0  0  0  0  0  0
   14.0408   -1.1909   16.9865 N   0  0  0  0  0  0  0  0  0  0  0  0
   13.8622    0.2720   17.1585 C   0  0  0  0  0  0  0  0  0  0  0  0
   12.0292    0.9475   16.3561 C   0  0  0  0  0  0  0  0  0  0  0  0
   10.7528    1.5697   17.9522 C   0  0  0  0  0  0  0  0  0  0  0  0
   12.1186    2.0928   19.6686 C   0  0  0  0  0  0  0  0  0  0  0  0
   13.9756    1.2241   19.1040 C   0  0  0  0  0  0  0  0  0  0  0  0
   13.1967   -0.1067   24.2057 N   0  0  0  0  0  0  0  0  0  0  0  0
   12.8291    1.3818   24.2220 C   0  0  0  0  0  0  0  0  0  0  0  0
   11.3249    1.7575   24.0833 C   0  0  0  0  0  0  0  0  0  0  0  0
   10.5526    1.3553   25.3187 C   0  0  0  0  0  0  0  0  0  0  0  0
   11.0508   -0.0133   25.7103 C   0  0  0  0  0  0  0  0  0  0  0  0
   12.5861   -0.0497   25.5876 C   0  0  0  0  0  0  0  0  0  0  0  0
   14.7936    0.6208   21.8901 H   0  0  0  0  0  0  0  0  0  0  0  0
   13.7121   -0.7950   21.8678 H   0  0  0  0  0  0  0  0  0  0  0  0
   15.6704   -2.3233   22.0722 H   0  0  0  0  0  0  0  0  0  0  0  0
   16.7547   -0.9514   22.2422 H   0  0  0  0  0  0  0  0  0  0  0  0
   13.8862   -1.7783   19.8084 H   0  0  0  0  0  0  0  0  0  0  0  0
   14.8567   -3.2127   19.6542 H   0  0  0  0  0  0  0  0  0  0  0  0
   14.7662   -4.3353   17.3253 H   0  0  0  0  0  0  0  0  0  0  0  0
   13.8365   -3.5324   14.8877 H   0  0  0  0  0  0  0  0  0  0  0  0
   14.7250    0.6245   16.5332 H   0  0  0  0  0  0  0  0  0  0  0  0
   11.5465    0.1198   15.8020 H   0  0  0  0  0  0  0  0  0  0  0  0
   12.1720    1.8086   15.6752 H   0  0  0  0  0  0  0  0  0  0  0  0
   10.1385    2.4358   17.5665 H   0  0  0  0  0  0  0  0  0  0  0  0
    9.9457    0.8023   18.0148 H   0  0  0  0  0  0  0  0  0  0  0  0
   11.6246    2.2059   20.6834 H   0  0  0  0  0  0  0  0  0  0  0  0
   12.5295    3.1666   19.7982 H   0  0  0  0  0  0  0  0  0  0  0  0
   14.2198    0.5009   19.8805 H   0  0  0  0  0  0  0  0  0  0  0  0
   14.7359    2.0288   19.0931 H   0  0  0  0  0  0  0  0  0  0  0  0
   13.2712    1.7668   23.2896 H   0  0  0  0  0  0  0  0  0  0  0  0
   13.3728    1.9775   24.9760 H   0  0  0  0  0  0  0  0  0  0  0  0
   10.9035    1.2674   23.2002 H   0  0  0  0  0  0  0  0  0  0  0  0
   11.2298    2.8372   23.9213 H   0  0  0  0  0  0  0  0  0  0  0  0
    9.4742    1.3613   25.1511 H   0  0  0  0  0  0  0  0  0  0  0  0
   10.7617    2.0668   26.1267 H   0  0  0  0  0  0  0  0  0  0  0  0
   10.7486   -0.2415   26.7383 H   0  0  0  0  0  0  0  0  0  0  0  0
   10.6186   -0.7841   25.0662 H   0  0  0  0  0  0  0  0  0  0  0  0
   13.1187    0.5941   26.3087 H   0  0  0  0  0  0  0  0  0  0  0  0
   12.8606   -1.0449   25.9728 H   0  0  0  0  0  0  0  0  0  0  0  0
  1  2  2  0
  2  3  1  0
  3  4  1  0
  4  5  1  0
  5  6  1  0
  6  7  1  0
  7  8  2  0
  8  9  1  0
  9 10  2  0
 10 11  1  0
 11 12  1  0
 12 13  1  0
 13 14  1  0
 14 15  1  0
 15 16  1  0
  2 17  1  0
 17 18  1  0
 18 19  1  0
 19 20  1  0
 20 21  1  0
 21 22  1  0
 11  7  1  0
 16 12  1  0
 22 17  1  0
  3 23  1  0
  3 24  1  0
  4 25  1  0
  4 26  1  0
  6 27  1  0
  6 28  1  0
  8 29  1  0
  9 30  1  0
 12 31  1  0
 13 32  1  0
 13 33  1  0
 14 34  1  0
 14 35  1  0
 15 36  1  0
 15 37  1  0
 16 38  1  0
 16 39  1  0
 18 40  1  0
 18 41  1  0
 19 42  1  0
 19 43  1  0
 20 44  1  0
 20 45  1  0
 21 46  1  0
 21 47  1  0
 22 48  1  0
 22 49  1  0
M  END
>  <Energy>  (1150) 
566.09233537959301

>  <compound_id>  (1150) 
8653

>  <target_id>  (1150) 
1

>  <reference_id>  (1150) 
44

>  <inspiration_ids>  (1150) 
[81, 44]

>  <energy_score>  (1150) 
519.8681978906401

>  <distance_score>  (1150) 
11.595778798358237

>  <path>  (1150) 
/opt/xchem-fragalysis-2/maxwin/BulkDock/SCRATCH/511016/C8653-P44/C8653-P44.minimised.mol

>  <scratch_subdir>  (1150) 
/opt/xchem-fragalysis-2/maxwin/BulkDock/SCRATCH/511016/C8653-P44

>  <fragmenstein_runtime>  (1150) 
13.773351192474365

>  <fragmenstein_outcome>  (1150) 
too moved

>  <fragmenstein_mode>  (1150) 
expansion

>  <fragmenstein_error>  (1150) 


$$$$
C8654-P81
     RDKit          3D

 46 48  0  0  0  0  0  0  0  0999 V2000
    6.1699   -1.0696   18.2566 O   0  0  0  0  0  0  0  0  0  0  0  0
    7.0480   -0.3638   18.7976 C   0  0  0  0  0  0  0  0  0  0  0  0
    6.9062   -0.0256   20.3920 O   0  0  0  0  0  0  0  0  0  0  0  0
    5.5385    0.0891   21.7841 C   0  0  0  0  0  0  0  0  0  0  0  0
    4.1463    1.2630   22.5838 C   0  0  0  0  0  0  0  0  0  0  0  0
    3.3510    2.6928   22.9421 N   0  0  0  0  0  0  0  0  0  0  0  0
    2.7049    2.6474   24.2938 C   0  0  0  0  0  0  0  0  0  0  0  0
    2.2976    4.0459   24.7672 C   0  0  0  0  0  0  0  0  0  0  0  0
    1.4844    4.8050   23.7253 C   0  0  0  0  0  0  0  0  0  0  0  0
    1.1092    3.9066   22.5584 C   0  0  0  0  0  0  0  0  0  0  0  0
    2.3503    3.2036   21.9614 C   0  0  0  0  0  0  0  0  0  0  0  0
    8.1897    0.2190   17.5677 C   0  0  0  0  0  0  0  0  0  0  0  0
    8.4485    1.5893   17.1259 C   0  0  0  0  0  0  0  0  0  0  0  0
    9.4132    1.5335   16.1530 C   0  0  0  0  0  0  0  0  0  0  0  0
    9.6545    0.2156   15.9441 N   0  0  0  0  0  0  0  0  0  0  0  0
   10.6243   -0.3934   15.0398 C   0  0  0  0  0  0  0  0  0  0  0  0
   11.0119    0.4547   13.8227 C   0  0  0  0  0  0  0  0  0  0  0  0
   12.2477    1.2598   14.2288 C   0  0  0  0  0  0  0  0  0  0  0  0
   12.7423    0.6556   15.5386 C   0  0  0  0  0  0  0  0  0  0  0  0
   11.9845   -0.6561   15.6896 C   0  0  0  0  0  0  0  0  0  0  0  0
    8.8977   -0.5925   16.7284 N   0  0  0  0  0  0  0  0  0  0  0  0
    4.8151    0.2740   21.1393 H   0  0  0  0  0  0  0  0  0  0  0  0
    5.4031   -0.9620   22.0864 H   0  0  0  0  0  0  0  0  0  0  0  0
    4.1277    0.9838   23.6363 H   0  0  0  0  0  0  0  0  0  0  0  0
    3.3502    1.0508   21.8823 H   0  0  0  0  0  0  0  0  0  0  0  0
    3.3300    2.2066   25.0749 H   0  0  0  0  0  0  0  0  0  0  0  0
    1.8173    2.0263   24.3062 H   0  0  0  0  0  0  0  0  0  0  0  0
    3.1893    4.6292   25.0276 H   0  0  0  0  0  0  0  0  0  0  0  0
    1.7117    3.9516   25.6897 H   0  0  0  0  0  0  0  0  0  0  0  0
    2.0750    5.6520   23.3544 H   0  0  0  0  0  0  0  0  0  0  0  0
    0.5842    5.2314   24.1821 H   0  0  0  0  0  0  0  0  0  0  0  0
    0.6204    4.5011   21.7773 H   0  0  0  0  0  0  0  0  0  0  0  0
    0.3684    3.1698   22.8881 H   0  0  0  0  0  0  0  0  0  0  0  0
    1.9927    2.4219   21.2833 H   0  0  0  0  0  0  0  0  0  0  0  0
    2.8323    3.9669   21.3405 H   0  0  0  0  0  0  0  0  0  0  0  0
    7.9762    2.4817   17.5129 H   0  0  0  0  0  0  0  0  0  0  0  0
    9.9086    2.3220   15.6070 H   0  0  0  0  0  0  0  0  0  0  0  0
   10.1726   -1.3394   14.7258 H   0  0  0  0  0  0  0  0  0  0  0  0
   11.3042   -0.2117   13.0057 H   0  0  0  0  0  0  0  0  0  0  0  0
   10.2098    1.0924   13.4445 H   0  0  0  0  0  0  0  0  0  0  0  0
   13.0157    1.1959   13.4500 H   0  0  0  0  0  0  0  0  0  0  0  0
   12.0092    2.3205   14.3598 H   0  0  0  0  0  0  0  0  0  0  0  0
   12.5075    1.3295   16.3701 H   0  0  0  0  0  0  0  0  0  0  0  0
   13.8259    0.5031   15.5373 H   0  0  0  0  0  0  0  0  0  0  0  0
   12.5096   -1.4414   15.1308 H   0  0  0  0  0  0  0  0  0  0  0  0
   11.9302   -0.9758   16.7304 H   0  0  0  0  0  0  0  0  0  0  0  0
  1  2  2  0
  2  3  1  0
  3  4  1  0
  4  5  1  0
  5  6  1  0
  6  7  1  0
  7  8  1  0
  8  9  1  0
  9 10  1  0
 10 11  1  0
  2 12  1  0
 12 13  1  0
 13 14  2  0
 14 15  1  0
 15 16  1  0
 16 17  1  0
 17 18  1  0
 18 19  1  0
 19 20  1  0
 15 21  1  0
 11  6  1  0
 21 12  2  0
 20 16  1  0
  4 22  1  0
  4 23  1  0
  5 24  1  0
  5 25  1  0
  7 26  1  0
  7 27  1  0
  8 28  1  0
  8 29  1  0
  9 30  1  0
  9 31  1  0
 10 32  1  0
 10 33  1  0
 11 34  1  0
 11 35  1  0
 13 36  1  0
 14 37  1  0
 16 38  1  0
 17 39  1  0
 17 40  1  0
 18 41  1  0
 18 42  1  0
 19 43  1  0
 19 44  1  0
 20 45  1  0
 20 46  1  0
M  END
>  <Energy>  (1151) 
410.34403487291763

>  <compound_id>  (1151) 
8654

>  <target_id>  (1151) 
1

>  <reference_id>  (1151) 
81

>  <inspiration_ids>  (1151) 
[81, 44]

>  <energy_score>  (1151) 
295.2061251516237

>  <distance_score>  (1151) 
6.421056092220466

>  <path>  (1151) 
/opt/xchem-fragalysis-2/maxwin/BulkDock/SCRATCH/511016/C8654-P81/C8654-P81.minimised.mol

>  <scratch_subdir>  (1151) 
/opt/xchem-fragalysis-2/maxwin/BulkDock/SCRATCH/511016/C8654-P81

>  <fragmenstein_runtime>  (1151) 
7.676542043685913

>  <fragmenstein_outcome>  (1151) 
too moved

>  <fragmenstein_mode>  (1151) 
expansion

>  <fragmenstein_error>  (1151) 


$$$$
C8654-P44
     RDKit          3D

 46 48  0  0  0  0  0  0  0  0999 V2000
    8.2867   -0.9712   19.5250 O   0  0  0  0  0  0  0  0  0  0  0  0
    7.3192   -0.2724   19.6905 C   0  0  0  0  0  0  0  0  0  0  0  0
    6.2689   -1.0083   20.7862 O   0  0  0  0  0  0  0  0  0  0  0  0
    4.9411   -0.7818   22.1600 C   0  0  0  0  0  0  0  0  0  0  0  0
    4.6264   -1.5966   23.6383 C   0  0  0  0  0  0  0  0  0  0  0  0
    4.3185   -0.9261   24.9703 N   0  0  0  0  0  0  0  0  0  0  0  0
    4.5533   -1.7645   26.1436 C   0  0  0  0  0  0  0  0  0  0  0  0
    3.6549   -1.3442   27.3247 C   0  0  0  0  0  0  0  0  0  0  0  0
    3.1965    0.1133   27.2702 C   0  0  0  0  0  0  0  0  0  0  0  0
    4.2641    0.9769   26.6219 C   0  0  0  0  0  0  0  0  0  0  0  0
    4.6664    0.4677   25.2233 C   0  0  0  0  0  0  0  0  0  0  0  0
    7.5071    1.0199   18.9507 C   0  0  0  0  0  0  0  0  0  0  0  0
    8.2688    0.9788   17.6724 C   0  0  0  0  0  0  0  0  0  0  0  0
    8.6996    2.2449   17.3847 C   0  0  0  0  0  0  0  0  0  0  0  0
    8.1858    2.9959   18.3894 N   0  0  0  0  0  0  0  0  0  0  0  0
    8.1164    4.4471   18.4654 C   0  0  0  0  0  0  0  0  0  0  0  0
    9.4315    5.0835   18.9281 C   0  0  0  0  0  0  0  0  0  0  0  0
   10.0295    5.6907   17.6679 C   0  0  0  0  0  0  0  0  0  0  0  0
    8.8120    6.2191   16.9302 C   0  0  0  0  0  0  0  0  0  0  0  0
    7.7502    5.1442   17.1383 C   0  0  0  0  0  0  0  0  0  0  0  0
    7.7557    2.2547   19.4354 N   0  0  0  0  0  0  0  0  0  0  0  0
    5.1859    0.0434   22.8778 H   0  0  0  0  0  0  0  0  0  0  0  0
    4.4054   -0.0462   21.5725 H   0  0  0  0  0  0  0  0  0  0  0  0
    3.6966   -2.1158   23.4282 H   0  0  0  0  0  0  0  0  0  0  0  0
    5.4075   -2.3288   23.8431 H   0  0  0  0  0  0  0  0  0  0  0  0
    4.3538   -2.8215   25.9272 H   0  0  0  0  0  0  0  0  0  0  0  0
    5.6100   -1.7075   26.4356 H   0  0  0  0  0  0  0  0  0  0  0  0
    4.2139   -1.5120   28.2539 H   0  0  0  0  0  0  0  0  0  0  0  0
    2.7720   -1.9908   27.3818 H   0  0  0  0  0  0  0  0  0  0  0  0
    2.9724    0.4723   28.2808 H   0  0  0  0  0  0  0  0  0  0  0  0
    2.2653    0.1873   26.7007 H   0  0  0  0  0  0  0  0  0  0  0  0
    5.1517    0.9816   27.2679 H   0  0  0  0  0  0  0  0  0  0  0  0
    3.9184    2.0148   26.5541 H   0  0  0  0  0  0  0  0  0  0  0  0
    5.7465    0.6036   25.1395 H   0  0  0  0  0  0  0  0  0  0  0  0
    4.1856    1.1295   24.4989 H   0  0  0  0  0  0  0  0  0  0  0  0
    8.4328    0.1211   17.0439 H   0  0  0  0  0  0  0  0  0  0  0  0
    9.2445    2.6610   16.5512 H   0  0  0  0  0  0  0  0  0  0  0  0
    7.3256    4.6739   19.1888 H   0  0  0  0  0  0  0  0  0  0  0  0
    9.2124    5.8867   19.6432 H   0  0  0  0  0  0  0  0  0  0  0  0
   10.1139    4.3854   19.4209 H   0  0  0  0  0  0  0  0  0  0  0  0
   10.7541    6.4789   17.8913 H   0  0  0  0  0  0  0  0  0  0  0  0
   10.5310    4.9230   17.0686 H   0  0  0  0  0  0  0  0  0  0  0  0
    9.0134    6.4022   15.8707 H   0  0  0  0  0  0  0  0  0  0  0  0
    8.4804    7.1629   17.3794 H   0  0  0  0  0  0  0  0  0  0  0  0
    6.7534    5.5965   17.1931 H   0  0  0  0  0  0  0  0  0  0  0  0
    7.7355    4.4594   16.2842 H   0  0  0  0  0  0  0  0  0  0  0  0
  1  2  2  0
  2  3  1  0
  3  4  1  0
  4  5  1  0
  5  6  1  0
  6  7  1  0
  7  8  1  0
  8  9  1  0
  9 10  1  0
 10 11  1  0
  2 12  1  0
 12 13  1  0
 13 14  2  0
 14 15  1  0
 15 16  1  0
 16 17  1  0
 17 18  1  0
 18 19  1  0
 19 20  1  0
 15 21  1  0
 11  6  1  0
 21 12  2  0
 20 16  1  0
  4 22  1  0
  4 23  1  0
  5 24  1  0
  5 25  1  0
  7 26  1  0
  7 27  1  0
  8 28  1  0
  8 29  1  0
  9 30  1  0
  9 31  1  0
 10 32  1  0
 10 33  1  0
 11 34  1  0
 11 35  1  0
 13 36  1  0
 14 37  1  0
 16 38  1  0
 17 39  1  0
 17 40  1  0
 18 41  1  0
 18 42  1  0
 19 43  1  0
 19 44  1  0
 20 45  1  0
 20 46  1  0
M  END
>  <Energy>  (1152) 
312.22396812708831

>  <compound_id>  (1152) 
8654

>  <target_id>  (1152) 
1

>  <reference_id>  (1152) 
44

>  <inspiration_ids>  (1152) 
[81, 44]

>  <energy_score>  (1152) 
197.08605840580424

>  <distance_score>  (1152) 
7.1070138631116855

>  <path>  (1152) 
/opt/xchem-fragalysis-2/maxwin/BulkDock/SCRATCH/511016/C8654-P44/C8654-P44.minimised.mol

>  <scratch_subdir>  (1152) 
/opt/xchem-fragalysis-2/maxwin/BulkDock/SCRATCH/511016/C8654-P44

>  <fragmenstein_runtime>  (1152) 
9.544620513916016

>  <fragmenstein_outcome>  (1152) 
too moved

>  <fragmenstein_mode>  (1152) 
expansion

>  <fragmenstein_error>  (1152) 


$$$$
C8655-P81
     RDKit          3D

 52 54  0  0  0  0  0  0  0  0999 V2000
    3.7475   -2.4338   23.5365 O   0  0  0  0  0  0  0  0  0  0  0  0
    4.9618   -1.6335   23.6548 C   0  0  0  0  0  0  0  0  0  0  0  0
    5.6767   -0.9474   21.9255 C   0  0  0  0  0  0  0  0  0  0  0  0
    7.1563   -0.8011   20.6429 N   0  0  0  0  0  0  0  0  0  0  0  0
    7.2097   -0.2975   18.9994 C   0  0  0  0  0  0  0  0  0  0  0  0
    8.1860    0.0841   17.4215 C   0  0  0  0  0  0  0  0  0  0  0  0
    8.2595   -0.6409   16.1575 C   0  0  0  0  0  0  0  0  0  0  0  0
    9.2678   -0.0708   15.4167 C   0  0  0  0  0  0  0  0  0  0  0  0
    9.6258    1.0451   16.0946 N   0  0  0  0  0  0  0  0  0  0  0  0
   10.6977    1.9735   15.7792 C   0  0  0  0  0  0  0  0  0  0  0  0
   10.6401    2.5811   14.3722 C   0  0  0  0  0  0  0  0  0  0  0  0
   12.0861    2.9414   14.0751 C   0  0  0  0  0  0  0  0  0  0  0  0
   12.8420    1.7358   14.6058 C   0  0  0  0  0  0  0  0  0  0  0  0
   12.1062    1.3541   15.8883 C   0  0  0  0  0  0  0  0  0  0  0  0
    8.9091    1.2225   17.2154 N   0  0  0  0  0  0  0  0  0  0  0  0
    4.6054   -1.1994   25.3329 C   0  0  0  0  0  0  0  0  0  0  0  0
    3.4050   -0.4679   25.8733 N   0  0  0  0  0  0  0  0  0  0  0  0
    2.9603   -1.0448   27.1566 C   0  0  0  0  0  0  0  0  0  0  0  0
    1.6901   -0.3884   27.7311 C   0  0  0  0  0  0  0  0  0  0  0  0
    1.6110    1.1204   27.5161 C   0  0  0  0  0  0  0  0  0  0  0  0
    2.9787    1.6867   27.1956 C   0  0  0  0  0  0  0  0  0  0  0  0
    3.6619    0.9680   26.0176 C   0  0  0  0  0  0  0  0  0  0  0  0
    3.0552   -1.9616   24.0433 H   0  0  0  0  0  0  0  0  0  0  0  0
    5.7376   -2.3158   23.9151 H   0  0  0  0  0  0  0  0  0  0  0  0
    5.0919   -0.0471   21.7684 H   0  0  0  0  0  0  0  0  0  0  0  0
    5.4993   -1.9650   21.5867 H   0  0  0  0  0  0  0  0  0  0  0  0
    8.0527   -0.5383   21.0162 H   0  0  0  0  0  0  0  0  0  0  0  0
    8.0914   -0.9156   19.0949 H   0  0  0  0  0  0  0  0  0  0  0  0
    6.4440   -0.8827   18.5004 H   0  0  0  0  0  0  0  0  0  0  0  0
    7.7136   -1.5123   15.8273 H   0  0  0  0  0  0  0  0  0  0  0  0
    9.7126   -0.3503   14.4721 H   0  0  0  0  0  0  0  0  0  0  0  0
   10.6283    2.7922   16.5093 H   0  0  0  0  0  0  0  0  0  0  0  0
   10.2972    1.8543   13.6276 H   0  0  0  0  0  0  0  0  0  0  0  0
    9.9793    3.4522   14.3257 H   0  0  0  0  0  0  0  0  0  0  0  0
   12.2635    3.1074   13.0088 H   0  0  0  0  0  0  0  0  0  0  0  0
   12.3759    3.8470   14.6206 H   0  0  0  0  0  0  0  0  0  0  0  0
   13.8997    1.9513   14.7828 H   0  0  0  0  0  0  0  0  0  0  0  0
   12.7820    0.9104   13.8861 H   0  0  0  0  0  0  0  0  0  0  0  0
   12.1012    0.2673   16.0242 H   0  0  0  0  0  0  0  0  0  0  0  0
   12.6269    1.7854   16.7519 H   0  0  0  0  0  0  0  0  0  0  0  0
    4.3849   -2.2191   25.6839 H   0  0  0  0  0  0  0  0  0  0  0  0
    5.4650   -1.0033   25.9769 H   0  0  0  0  0  0  0  0  0  0  0  0
    2.7432   -2.1139   27.0386 H   0  0  0  0  0  0  0  0  0  0  0  0
    3.7683   -0.9693   27.8972 H   0  0  0  0  0  0  0  0  0  0  0  0
    1.6599   -0.5987   28.8078 H   0  0  0  0  0  0  0  0  0  0  0  0
    0.7933   -0.8582   27.3160 H   0  0  0  0  0  0  0  0  0  0  0  0
    0.9174    1.3528   26.7014 H   0  0  0  0  0  0  0  0  0  0  0  0
    1.1983    1.6033   28.4094 H   0  0  0  0  0  0  0  0  0  0  0  0
    3.6144    1.5944   28.0863 H   0  0  0  0  0  0  0  0  0  0  0  0
    2.9029    2.7582   26.9776 H   0  0  0  0  0  0  0  0  0  0  0  0
    3.3476    1.4529   25.0887 H   0  0  0  0  0  0  0  0  0  0  0  0
    4.7305    1.1424   26.1617 H   0  0  0  0  0  0  0  0  0  0  0  0
  1  2  1  0
  2  3  1  0
  3  4  1  0
  4  5  1  0
  5  6  1  0
  6  7  1  0
  7  8  2  0
  8  9  1  0
  9 10  1  0
 10 11  1  0
 11 12  1  0
 12 13  1  0
 13 14  1  0
  9 15  1  0
  2 16  1  0
 16 17  1  0
 17 18  1  0
 18 19  1  0
 19 20  1  0
 20 21  1  0
 21 22  1  0
 15  6  2  0
 22 17  1  0
 14 10  1  0
  1 23  1  0
  2 24  1  0
  3 25  1  0
  3 26  1  0
  4 27  1  0
  5 28  1  0
  5 29  1  0
  7 30  1  0
  8 31  1  0
 10 32  1  0
 11 33  1  0
 11 34  1  0
 12 35  1  0
 12 36  1  0
 13 37  1  0
 13 38  1  0
 14 39  1  0
 14 40  1  0
 16 41  1  0
 16 42  1  0
 18 43  1  0
 18 44  1  0
 19 45  1  0
 19 46  1  0
 20 47  1  0
 20 48  1  0
 21 49  1  0
 21 50  1  0
 22 51  1  0
 22 52  1  0
M  END
>  <Energy>  (1153) 
440.49755438817493

>  <compound_id>  (1153) 
8655

>  <target_id>  (1153) 
1

>  <reference_id>  (1153) 
81

>  <inspiration_ids>  (1153) 
[81, 44]

>  <energy_score>  (1153) 
315.98449361204075

>  <distance_score>  (1153) 
5.541280459376165

>  <path>  (1153) 
/opt/xchem-fragalysis-2/maxwin/BulkDock/SCRATCH/511016/C8655-P81/C8655-P81.minimised.mol

>  <scratch_subdir>  (1153) 
/opt/xchem-fragalysis-2/maxwin/BulkDock/SCRATCH/511016/C8655-P81

>  <fragmenstein_runtime>  (1153) 
8.186948776245117

>  <fragmenstein_outcome>  (1153) 
too moved

>  <fragmenstein_mode>  (1153) 
expansion

>  <fragmenstein_error>  (1153) 


$$$$
C8655-P44
     RDKit          3D

 52 54  0  0  0  0  0  0  0  0999 V2000
    6.3635   -6.4843   23.0342 O   0  0  0  0  0  0  0  0  0  0  0  0
    6.7491   -5.1061   23.0596 C   0  0  0  0  0  0  0  0  0  0  0  0
    7.5488   -4.4282   21.3027 C   0  0  0  0  0  0  0  0  0  0  0  0
    9.2473   -4.5567   20.5856 N   0  0  0  0  0  0  0  0  0  0  0  0
   10.9338   -5.0347   21.2326 C   0  0  0  0  0  0  0  0  0  0  0  0
   12.3230   -4.5410   20.6555 C   0  0  0  0  0  0  0  0  0  0  0  0
   13.2253   -3.6451   21.2955 C   0  0  0  0  0  0  0  0  0  0  0  0
   14.2034   -3.3774   20.3668 C   0  0  0  0  0  0  0  0  0  0  0  0
   13.8457   -4.0682   19.2475 N   0  0  0  0  0  0  0  0  0  0  0  0
   14.4375   -3.9931   17.9294 C   0  0  0  0  0  0  0  0  0  0  0  0
   15.3177   -2.7656   17.6605 C   0  0  0  0  0  0  0  0  0  0  0  0
   15.4128   -2.6733   16.1394 C   0  0  0  0  0  0  0  0  0  0  0  0
   14.2410   -3.4826   15.5894 C   0  0  0  0  0  0  0  0  0  0  0  0
   13.4079   -3.8744   16.8008 C   0  0  0  0  0  0  0  0  0  0  0  0
   12.8312   -4.9221   19.4762 N   0  0  0  0  0  0  0  0  0  0  0  0
    6.1560   -4.7547   24.7865 C   0  0  0  0  0  0  0  0  0  0  0  0
    4.8383   -4.9445   25.5104 N   0  0  0  0  0  0  0  0  0  0  0  0
    4.6832   -6.2917   26.0613 C   0  0  0  0  0  0  0  0  0  0  0  0
    3.9345   -6.3470   27.4074 C   0  0  0  0  0  0  0  0  0  0  0  0
    2.9013   -5.2424   27.5348 C   0  0  0  0  0  0  0  0  0  0  0  0
    3.5459   -3.8784   27.4499 C   0  0  0  0  0  0  0  0  0  0  0  0
    4.8175   -3.9157   26.6105 C   0  0  0  0  0  0  0  0  0  0  0  0
    5.4789   -6.5389   23.4418 H   0  0  0  0  0  0  0  0  0  0  0  0
    6.1781   -4.1834   23.0100 H   0  0  0  0  0  0  0  0  0  0  0  0
    7.3388   -3.3559   21.3616 H   0  0  0  0  0  0  0  0  0  0  0  0
    7.0345   -4.7043   20.3327 H   0  0  0  0  0  0  0  0  0  0  0  0
    9.2391   -5.3918   20.0079 H   0  0  0  0  0  0  0  0  0  0  0  0
   10.9575   -6.1270   21.2404 H   0  0  0  0  0  0  0  0  0  0  0  0
   11.0682   -4.5444   22.2055 H   0  0  0  0  0  0  0  0  0  0  0  0
   13.1279   -3.2000   22.2761 H   0  0  0  0  0  0  0  0  0  0  0  0
   15.0633   -2.7253   20.4019 H   0  0  0  0  0  0  0  0  0  0  0  0
   15.0530   -4.8902   17.8155 H   0  0  0  0  0  0  0  0  0  0  0  0
   14.8512   -1.8520   18.0486 H   0  0  0  0  0  0  0  0  0  0  0  0
   16.3057   -2.8530   18.1244 H   0  0  0  0  0  0  0  0  0  0  0  0
   16.3600   -3.0927   15.7823 H   0  0  0  0  0  0  0  0  0  0  0  0
   15.3714   -1.6299   15.8095 H   0  0  0  0  0  0  0  0  0  0  0  0
   14.6200   -4.3813   15.0897 H   0  0  0  0  0  0  0  0  0  0  0  0
   13.6558   -2.9184   14.8569 H   0  0  0  0  0  0  0  0  0  0  0  0
   12.6768   -3.0863   17.0242 H   0  0  0  0  0  0  0  0  0  0  0  0
   12.8488   -4.7977   16.6252 H   0  0  0  0  0  0  0  0  0  0  0  0
    6.9691   -5.0774   25.4539 H   0  0  0  0  0  0  0  0  0  0  0  0
    6.0269   -3.6670   24.7774 H   0  0  0  0  0  0  0  0  0  0  0  0
    4.1315   -6.8925   25.3292 H   0  0  0  0  0  0  0  0  0  0  0  0
    5.6510   -6.7897   26.2004 H   0  0  0  0  0  0  0  0  0  0  0  0
    4.6563   -6.2622   28.2300 H   0  0  0  0  0  0  0  0  0  0  0  0
    3.4512   -7.3254   27.5106 H   0  0  0  0  0  0  0  0  0  0  0  0
    2.2111   -5.3471   26.7018 H   0  0  0  0  0  0  0  0  0  0  0  0
    2.3336   -5.3386   28.4656 H   0  0  0  0  0  0  0  0  0  0  0  0
    3.8027   -3.5281   28.4573 H   0  0  0  0  0  0  0  0  0  0  0  0
    2.8317   -3.1552   27.0503 H   0  0  0  0  0  0  0  0  0  0  0  0
    4.9351   -2.9032   26.2015 H   0  0  0  0  0  0  0  0  0  0  0  0
    5.6770   -4.0845   27.2751 H   0  0  0  0  0  0  0  0  0  0  0  0
  1  2  1  0
  2  3  1  0
  3  4  1  0
  4  5  1  0
  5  6  1  0
  6  7  1  0
  7  8  2  0
  8  9  1  0
  9 10  1  0
 10 11  1  0
 11 12  1  0
 12 13  1  0
 13 14  1  0
  9 15  1  0
  2 16  1  0
 16 17  1  0
 17 18  1  0
 18 19  1  0
 19 20  1  0
 20 21  1  0
 21 22  1  0
 15  6  2  0
 22 17  1  0
 14 10  1  0
  1 23  1  0
  2 24  1  0
  3 25  1  0
  3 26  1  0
  4 27  1  0
  5 28  1  0
  5 29  1  0
  7 30  1  0
  8 31  1  0
 10 32  1  0
 11 33  1  0
 11 34  1  0
 12 35  1  0
 12 36  1  0
 13 37  1  0
 13 38  1  0
 14 39  1  0
 14 40  1  0
 16 41  1  0
 16 42  1  0
 18 43  1  0
 18 44  1  0
 19 45  1  0
 19 46  1  0
 20 47  1  0
 20 48  1  0
 21 49  1  0
 21 50  1  0
 22 51  1  0
 22 52  1  0
M  END
>  <Energy>  (1154) 
387.79046198135097

>  <compound_id>  (1154) 
8655

>  <target_id>  (1154) 
1

>  <reference_id>  (1154) 
44

>  <inspiration_ids>  (1154) 
[81, 44]

>  <energy_score>  (1154) 
263.27740120522776

>  <distance_score>  (1154) 
8.691421448948246

>  <path>  (1154) 
/opt/xchem-fragalysis-2/maxwin/BulkDock/SCRATCH/511016/C8655-P44/C8655-P44.minimised.mol

>  <scratch_subdir>  (1154) 
/opt/xchem-fragalysis-2/maxwin/BulkDock/SCRATCH/511016/C8655-P44

>  <fragmenstein_runtime>  (1154) 
10.098738670349121

>  <fragmenstein_outcome>  (1154) 
too moved

>  <fragmenstein_mode>  (1154) 
expansion

>  <fragmenstein_error>  (1154) 


$$$$
C8658-P81
     RDKit          3D

 54 56  0  0  0  0  0  0  0  0999 V2000
    5.5674   -1.9807   25.1735 C   0  0  0  0  0  0  0  0  0  0  0  0
    4.7025   -1.3580   24.1351 C   0  0  0  0  0  0  0  0  0  0  0  0
    3.5248   -2.4062   24.1163 C   0  0  0  0  0  0  0  0  0  0  0  0
    5.4649   -1.0128   22.2230 C   0  0  0  0  0  0  0  0  0  0  0  0
    6.9269   -0.9285   20.8542 N   0  0  0  0  0  0  0  0  0  0  0  0
    7.1800   -0.1775   19.1918 C   0  0  0  0  0  0  0  0  0  0  0  0
    8.1296    0.0517   17.5308 C   0  0  0  0  0  0  0  0  0  0  0  0
    8.1465   -0.6507   16.2433 C   0  0  0  0  0  0  0  0  0  0  0  0
    9.1500   -0.1046   15.4775 C   0  0  0  0  0  0  0  0  0  0  0  0
    9.4871    1.0397   16.1089 N   0  0  0  0  0  0  0  0  0  0  0  0
   10.4611    2.0439   15.7241 C   0  0  0  0  0  0  0  0  0  0  0  0
    9.9316    3.4795   15.8112 C   0  0  0  0  0  0  0  0  0  0  0  0
   10.9573    4.2730   15.0216 C   0  0  0  0  0  0  0  0  0  0  0  0
   11.2542    3.3871   13.8225 C   0  0  0  0  0  0  0  0  0  0  0  0
   11.0411    1.9488   14.2994 C   0  0  0  0  0  0  0  0  0  0  0  0
    8.8225    1.2035   17.2580 N   0  0  0  0  0  0  0  0  0  0  0  0
    3.8328   -0.3292   25.3797 N   0  0  0  0  0  0  0  0  0  0  0  0
    3.0190   -1.1005   26.4678 C   0  0  0  0  0  0  0  0  0  0  0  0
    2.1502   -0.2389   27.4291 C   0  0  0  0  0  0  0  0  0  0  0  0
    2.2626    1.2509   27.1980 C   0  0  0  0  0  0  0  0  0  0  0  0
    3.7043    1.6427   26.9596 C   0  0  0  0  0  0  0  0  0  0  0  0
    4.5690    0.5296   26.3222 C   0  0  0  0  0  0  0  0  0  0  0  0
    6.2990   -1.5588   25.8735 H   0  0  0  0  0  0  0  0  0  0  0  0
    6.0719   -2.7306   24.6060 H   0  0  0  0  0  0  0  0  0  0  0  0
    4.9129   -2.3665   25.9472 H   0  0  0  0  0  0  0  0  0  0  0  0
    3.5678   -3.1756   24.8900 H   0  0  0  0  0  0  0  0  0  0  0  0
    3.2735   -2.8655   23.1887 H   0  0  0  0  0  0  0  0  0  0  0  0
    2.6052   -1.9112   24.3110 H   0  0  0  0  0  0  0  0  0  0  0  0
    4.8980   -0.1524   21.8907 H   0  0  0  0  0  0  0  0  0  0  0  0
    5.3631   -2.0497   21.9837 H   0  0  0  0  0  0  0  0  0  0  0  0
    6.5739   -1.8031   20.4042 H   0  0  0  0  0  0  0  0  0  0  0  0
    6.4985   -0.8060   18.6304 H   0  0  0  0  0  0  0  0  0  0  0  0
    8.0798   -0.7645   19.3583 H   0  0  0  0  0  0  0  0  0  0  0  0
    7.5716   -1.4970   15.8963 H   0  0  0  0  0  0  0  0  0  0  0  0
    9.5561   -0.4032   14.5222 H   0  0  0  0  0  0  0  0  0  0  0  0
   11.2925    1.9334   16.4331 H   0  0  0  0  0  0  0  0  0  0  0  0
    8.9407    3.5668   15.3496 H   0  0  0  0  0  0  0  0  0  0  0  0
    9.8536    3.8335   16.8444 H   0  0  0  0  0  0  0  0  0  0  0  0
   10.5867    5.2593   14.7280 H   0  0  0  0  0  0  0  0  0  0  0  0
   11.8661    4.4144   15.6186 H   0  0  0  0  0  0  0  0  0  0  0  0
   10.5529    3.6116   13.0099 H   0  0  0  0  0  0  0  0  0  0  0  0
   12.2658    3.5473   13.4371 H   0  0  0  0  0  0  0  0  0  0  0  0
   10.3842    1.4354   13.5908 H   0  0  0  0  0  0  0  0  0  0  0  0
   11.9878    1.3966   14.3127 H   0  0  0  0  0  0  0  0  0  0  0  0
    3.6928   -1.6525   27.1367 H   0  0  0  0  0  0  0  0  0  0  0  0
    2.3488   -1.8690   26.1127 H   0  0  0  0  0  0  0  0  0  0  0  0
    1.0981   -0.5388   27.3621 H   0  0  0  0  0  0  0  0  0  0  0  0
    2.4612   -0.4569   28.4595 H   0  0  0  0  0  0  0  0  0  0  0  0
    1.6642    1.5501   26.3315 H   0  0  0  0  0  0  0  0  0  0  0  0
    1.8498    1.8051   28.0487 H   0  0  0  0  0  0  0  0  0  0  0  0
    4.1673    1.9276   27.9129 H   0  0  0  0  0  0  0  0  0  0  0  0
    3.7060    2.5444   26.3397 H   0  0  0  0  0  0  0  0  0  0  0  0
    5.0475   -0.0486   27.1265 H   0  0  0  0  0  0  0  0  0  0  0  0
    5.3739    1.0452   25.8975 H   0  0  0  0  0  0  0  0  0  0  0  0
  1  2  1  0
  2  3  1  0
  2  4  1  0
  4  5  1  0
  5  6  1  0
  6  7  1  0
  7  8  1  0
  8  9  2  0
  9 10  1  0
 10 11  1  0
 11 12  1  0
 12 13  1  0
 13 14  1  0
 14 15  1  0
 10 16  1  0
  2 17  1  0
 17 18  1  0
 18 19  1  0
 19 20  1  0
 20 21  1  0
 21 22  1  0
 16  7  2  0
 22 17  1  0
 15 11  1  0
  1 23  1  0
  1 24  1  0
  1 25  1  0
  3 26  1  0
  3 27  1  0
  3 28  1  0
  4 29  1  0
  4 30  1  0
  5 31  1  0
  6 32  1  0
  6 33  1  0
  8 34  1  0
  9 35  1  0
 11 36  1  0
 12 37  1  0
 12 38  1  0
 13 39  1  0
 13 40  1  0
 14 41  1  0
 14 42  1  0
 15 43  1  0
 15 44  1  0
 18 45  1  0
 18 46  1  0
 19 47  1  0
 19 48  1  0
 20 49  1  0
 20 50  1  0
 21 51  1  0
 21 52  1  0
 22 53  1  0
 22 54  1  0
M  END
>  <Energy>  (1155) 
561.79823060992919

>  <compound_id>  (1155) 
8658

>  <target_id>  (1155) 
1

>  <reference_id>  (1155) 
81

>  <inspiration_ids>  (1155) 
[81, 44]

>  <energy_score>  (1155) 
436.25409890439676

>  <distance_score>  (1155) 
5.696521310968373

>  <path>  (1155) 
/opt/xchem-fragalysis-2/maxwin/BulkDock/SCRATCH/511016/C8658-P81/C8658-P81.minimised.mol

>  <scratch_subdir>  (1155) 
/opt/xchem-fragalysis-2/maxwin/BulkDock/SCRATCH/511016/C8658-P81

>  <fragmenstein_runtime>  (1155) 
12.071143388748169

>  <fragmenstein_outcome>  (1155) 
too moved

>  <fragmenstein_mode>  (1155) 
expansion

>  <fragmenstein_error>  (1155) 


$$$$
C8658-P44
     RDKit          3D

 54 56  0  0  0  0  0  0  0  0999 V2000
    6.4462   -5.4601   23.8465 C   0  0  0  0  0  0  0  0  0  0  0  0
    6.0834   -3.7947   23.5287 C   0  0  0  0  0  0  0  0  0  0  0  0
    5.0119   -4.4539   24.9226 C   0  0  0  0  0  0  0  0  0  0  0  0
    7.1390   -3.5873   21.7265 C   0  0  0  0  0  0  0  0  0  0  0  0
    8.6163   -4.1176   20.5592 N   0  0  0  0  0  0  0  0  0  0  0  0
   10.3001   -5.1345   20.8658 C   0  0  0  0  0  0  0  0  0  0  0  0
   12.0188   -5.0105   20.4460 C   0  0  0  0  0  0  0  0  0  0  0  0
   12.7426   -4.6094   19.2657 C   0  0  0  0  0  0  0  0  0  0  0  0
   14.0696   -4.6851   19.5892 C   0  0  0  0  0  0  0  0  0  0  0  0
   14.1092   -5.1529   20.8653 N   0  0  0  0  0  0  0  0  0  0  0  0
   15.2953   -5.4563   21.6481 C   0  0  0  0  0  0  0  0  0  0  0  0
   16.1596   -4.2168   21.9340 C   0  0  0  0  0  0  0  0  0  0  0  0
   17.5960   -4.6858   21.7479 C   0  0  0  0  0  0  0  0  0  0  0  0
   17.4918   -5.7098   20.6311 C   0  0  0  0  0  0  0  0  0  0  0  0
   16.2255   -6.4824   20.9769 C   0  0  0  0  0  0  0  0  0  0  0  0
   12.8934   -5.3954   21.3993 N   0  0  0  0  0  0  0  0  0  0  0  0
    5.7432   -2.4414   24.5570 N   0  0  0  0  0  0  0  0  0  0  0  0
    6.2416   -2.3253   25.9640 C   0  0  0  0  0  0  0  0  0  0  0  0
    6.5114   -0.8733   26.3979 C   0  0  0  0  0  0  0  0  0  0  0  0
    5.3347    0.0633   26.1622 C   0  0  0  0  0  0  0  0  0  0  0  0
    4.1835   -0.6714   25.5096 C   0  0  0  0  0  0  0  0  0  0  0  0
    4.6447   -1.5064   24.2861 C   0  0  0  0  0  0  0  0  0  0  0  0
    7.0589   -5.6038   24.7488 H   0  0  0  0  0  0  0  0  0  0  0  0
    5.6582   -6.2283   23.9120 H   0  0  0  0  0  0  0  0  0  0  0  0
    6.8311   -5.8695   22.9313 H   0  0  0  0  0  0  0  0  0  0  0  0
    4.1725   -3.7905   25.1953 H   0  0  0  0  0  0  0  0  0  0  0  0
    4.4385   -5.3842   24.8064 H   0  0  0  0  0  0  0  0  0  0  0  0
    5.6138   -4.6231   25.8320 H   0  0  0  0  0  0  0  0  0  0  0  0
    7.4987   -2.6485   21.5171 H   0  0  0  0  0  0  0  0  0  0  0  0
    6.3368   -3.1141   21.0516 H   0  0  0  0  0  0  0  0  0  0  0  0
    8.0314   -4.8940   20.2862 H   0  0  0  0  0  0  0  0  0  0  0  0
   10.7401   -4.7136   21.7894 H   0  0  0  0  0  0  0  0  0  0  0  0
   10.2184   -6.1984   20.7548 H   0  0  0  0  0  0  0  0  0  0  0  0
   12.3536   -4.3054   18.3046 H   0  0  0  0  0  0  0  0  0  0  0  0
   14.9608   -4.4879   19.0123 H   0  0  0  0  0  0  0  0  0  0  0  0
   14.9439   -5.8785   22.5990 H   0  0  0  0  0  0  0  0  0  0  0  0
   15.9458   -3.3972   21.2377 H   0  0  0  0  0  0  0  0  0  0  0  0
   15.9921   -3.8323   22.9456 H   0  0  0  0  0  0  0  0  0  0  0  0
   18.2718   -3.8630   21.4980 H   0  0  0  0  0  0  0  0  0  0  0  0
   17.9600   -5.1615   22.6663 H   0  0  0  0  0  0  0  0  0  0  0  0
   17.3778   -5.2071   19.6637 H   0  0  0  0  0  0  0  0  0  0  0  0
   18.3707   -6.3584   20.5776 H   0  0  0  0  0  0  0  0  0  0  0  0
   15.7943   -6.9729   20.0983 H   0  0  0  0  0  0  0  0  0  0  0  0
   16.4728   -7.2694   21.7005 H   0  0  0  0  0  0  0  0  0  0  0  0
    7.1516   -2.8966   26.1683 H   0  0  0  0  0  0  0  0  0  0  0  0
    5.4965   -2.7185   26.6684 H   0  0  0  0  0  0  0  0  0  0  0  0
    6.7682   -0.8661   27.4647 H   0  0  0  0  0  0  0  0  0  0  0  0
    7.3984   -0.4896   25.8800 H   0  0  0  0  0  0  0  0  0  0  0  0
    5.0057    0.5036   27.1106 H   0  0  0  0  0  0  0  0  0  0  0  0
    5.6521    0.8999   25.5309 H   0  0  0  0  0  0  0  0  0  0  0  0
    3.4293    0.0611   25.2123 H   0  0  0  0  0  0  0  0  0  0  0  0
    3.7204   -1.3192   26.2637 H   0  0  0  0  0  0  0  0  0  0  0  0
    3.8239   -2.0275   23.8158 H   0  0  0  0  0  0  0  0  0  0  0  0
    4.9362   -0.7798   23.5395 H   0  0  0  0  0  0  0  0  0  0  0  0
  1  2  1  0
  2  3  1  0
  2  4  1  0
  4  5  1  0
  5  6  1  0
  6  7  1  0
  7  8  1  0
  8  9  2  0
  9 10  1  0
 10 11  1  0
 11 12  1  0
 12 13  1  0
 13 14  1  0
 14 15  1  0
 10 16  1  0
  2 17  1  0
 17 18  1  0
 18 19  1  0
 19 20  1  0
 20 21  1  0
 21 22  1  0
 16  7  2  0
 22 17  1  0
 15 11  1  0
  1 23  1  0
  1 24  1  0
  1 25  1  0
  3 26  1  0
  3 27  1  0
  3 28  1  0
  4 29  1  0
  4 30  1  0
  5 31  1  0
  6 32  1  0
  6 33  1  0
  8 34  1  0
  9 35  1  0
 11 36  1  0
 12 37  1  0
 12 38  1  0
 13 39  1  0
 13 40  1  0
 14 41  1  0
 14 42  1  0
 15 43  1  0
 15 44  1  0
 18 45  1  0
 18 46  1  0
 19 47  1  0
 19 48  1  0
 20 49  1  0
 20 50  1  0
 21 51  1  0
 21 52  1  0
 22 53  1  0
 22 54  1  0
M  END
>  <Energy>  (1156) 
637.25244795504329

>  <compound_id>  (1156) 
8658

>  <target_id>  (1156) 
1

>  <reference_id>  (1156) 
44

>  <inspiration_ids>  (1156) 
[81, 44]

>  <energy_score>  (1156) 
511.7083162495151

>  <distance_score>  (1156) 
7.942909576941997

>  <path>  (1156) 
/opt/xchem-fragalysis-2/maxwin/BulkDock/SCRATCH/511016/C8658-P44/C8658-P44.minimised.mol

>  <scratch_subdir>  (1156) 
/opt/xchem-fragalysis-2/maxwin/BulkDock/SCRATCH/511016/C8658-P44

>  <fragmenstein_runtime>  (1156) 
16.823106288909912

>  <fragmenstein_outcome>  (1156) 
too moved

>  <fragmenstein_mode>  (1156) 
expansion

>  <fragmenstein_error>  (1156) 


$$$$
C8659-P81
     RDKit          3D

 44 46  0  0  0  0  0  0  0  0999 V2000
    3.9388    1.8830   22.2414 O   0  0  0  0  0  0  0  0  0  0  0  0
    4.4321    0.8699   22.6372 C   0  0  0  0  0  0  0  0  0  0  0  0
    3.8512    0.5293   24.5270 C   0  0  0  0  0  0  0  0  0  0  0  0
    3.2139    1.7390   25.2533 N   0  0  0  0  0  0  0  0  0  0  0  0
    2.2282    2.5942   24.6256 C   0  0  0  0  0  0  0  0  0  0  0  0
    2.0539    3.8866   25.4338 C   0  0  0  0  0  0  0  0  0  0  0  0
    1.6758    3.6349   26.8924 C   0  0  0  0  0  0  0  0  0  0  0  0
    1.7287    2.1586   27.2584 C   0  0  0  0  0  0  0  0  0  0  0  0
    2.9657    1.4623   26.6766 C   0  0  0  0  0  0  0  0  0  0  0  0
    5.6902   -0.2356   21.8676 N   0  0  0  0  0  0  0  0  0  0  0  0
    6.7317   -0.0636   20.3053 C   0  0  0  0  0  0  0  0  0  0  0  0
    7.0841   -0.5780   19.0057 C   0  0  0  0  0  0  0  0  0  0  0  0
    7.9040   -0.0133   18.0521 N   0  0  0  0  0  0  0  0  0  0  0  0
    7.6844    1.4380   18.5184 N   0  0  0  0  0  0  0  0  0  0  0  0
    7.9122    2.5071   17.5130 C   0  0  0  0  0  0  0  0  0  0  0  0
    9.3354    2.8919   17.0441 C   0  0  0  0  0  0  0  0  0  0  0  0
    9.3308    4.4153   16.9543 C   0  0  0  0  0  0  0  0  0  0  0  0
    7.8804    4.7706   16.6703 C   0  0  0  0  0  0  0  0  0  0  0  0
    7.0984    3.8181   17.5662 C   0  0  0  0  0  0  0  0  0  0  0  0
    7.4580    1.1247   20.0369 C   0  0  0  0  0  0  0  0  0  0  0  0
    3.3808   -0.4166   24.8681 H   0  0  0  0  0  0  0  0  0  0  0  0
    4.7301    0.4365   25.1623 H   0  0  0  0  0  0  0  0  0  0  0  0
    1.2468    2.1289   24.5805 H   0  0  0  0  0  0  0  0  0  0  0  0
    2.5043    2.8894   23.6151 H   0  0  0  0  0  0  0  0  0  0  0  0
    1.2894    4.5146   24.9607 H   0  0  0  0  0  0  0  0  0  0  0  0
    2.9863    4.4653   25.3989 H   0  0  0  0  0  0  0  0  0  0  0  0
    2.3588    4.1990   27.5394 H   0  0  0  0  0  0  0  0  0  0  0  0
    0.6712    4.0250   27.0942 H   0  0  0  0  0  0  0  0  0  0  0  0
    1.7160    2.0453   28.3485 H   0  0  0  0  0  0  0  0  0  0  0  0
    0.8234    1.6622   26.8865 H   0  0  0  0  0  0  0  0  0  0  0  0
    3.8516    1.7830   27.2380 H   0  0  0  0  0  0  0  0  0  0  0  0
    2.8515    0.3874   26.8620 H   0  0  0  0  0  0  0  0  0  0  0  0
    5.8313   -1.0577   22.4177 H   0  0  0  0  0  0  0  0  0  0  0  0
    6.3498   -1.1631   18.4717 H   0  0  0  0  0  0  0  0  0  0  0  0
    7.5440    2.0319   16.5895 H   0  0  0  0  0  0  0  0  0  0  0  0
   10.1632    2.5288   17.6446 H   0  0  0  0  0  0  0  0  0  0  0  0
    9.5050    2.4785   16.0401 H   0  0  0  0  0  0  0  0  0  0  0  0
    9.6440    4.8511   17.9099 H   0  0  0  0  0  0  0  0  0  0  0  0
   10.0068    4.7841   16.1773 H   0  0  0  0  0  0  0  0  0  0  0  0
    7.6587    5.8193   16.8873 H   0  0  0  0  0  0  0  0  0  0  0  0
    7.6423    4.5804   15.6170 H   0  0  0  0  0  0  0  0  0  0  0  0
    7.0204    4.2493   18.5655 H   0  0  0  0  0  0  0  0  0  0  0  0
    6.0763    3.6789   17.1976 H   0  0  0  0  0  0  0  0  0  0  0  0
    7.4930    1.8960   20.8054 H   0  0  0  0  0  0  0  0  0  0  0  0
  1  2  2  0
  2  3  1  0
  3  4  1  0
  4  5  1  0
  5  6  1  0
  6  7  1  0
  7  8  1  0
  8  9  1  0
  2 10  1  0
 10 11  1  0
 11 12  1  0
 12 13  2  0
 13 14  1  0
 14 15  1  0
 15 16  1  0
 16 17  1  0
 17 18  1  0
 18 19  1  0
 14 20  1  0
  9  4  1  0
 20 11  2  0
 19 15  1  0
  3 21  1  0
  3 22  1  0
  5 23  1  0
  5 24  1  0
  6 25  1  0
  6 26  1  0
  7 27  1  0
  7 28  1  0
  8 29  1  0
  8 30  1  0
  9 31  1  0
  9 32  1  0
 10 33  1  0
 12 34  1  0
 15 35  1  0
 16 36  1  0
 16 37  1  0
 17 38  1  0
 17 39  1  0
 18 40  1  0
 18 41  1  0
 19 42  1  0
 19 43  1  0
 20 44  1  0
M  END
>  <Energy>  (1157) 
371.62697196488034

>  <compound_id>  (1157) 
8659

>  <target_id>  (1157) 
1

>  <reference_id>  (1157) 
81

>  <inspiration_ids>  (1157) 
[81, 44]

>  <energy_score>  (1157) 
262.4690737142123

>  <distance_score>  (1157) 
6.095666971772982

>  <path>  (1157) 
/opt/xchem-fragalysis-2/maxwin/BulkDock/SCRATCH/511016/C8659-P81/C8659-P81.minimised.mol

>  <scratch_subdir>  (1157) 
/opt/xchem-fragalysis-2/maxwin/BulkDock/SCRATCH/511016/C8659-P81

>  <fragmenstein_runtime>  (1157) 
8.887660026550293

>  <fragmenstein_outcome>  (1157) 
too moved

>  <fragmenstein_mode>  (1157) 
expansion

>  <fragmenstein_error>  (1157) 


$$$$
C8659-P44
     RDKit          3D

 44 46  0  0  0  0  0  0  0  0999 V2000
    4.7023    6.5900   23.1778 O   0  0  0  0  0  0  0  0  0  0  0  0
    4.2704    5.7882   22.3951 C   0  0  0  0  0  0  0  0  0  0  0  0
    3.1707    4.7434   22.8109 C   0  0  0  0  0  0  0  0  0  0  0  0
    2.4533    5.0142   24.0924 N   0  0  0  0  0  0  0  0  0  0  0  0
    1.3618    5.9791   23.8865 C   0  0  0  0  0  0  0  0  0  0  0  0
    0.5659    6.2423   25.1703 C   0  0  0  0  0  0  0  0  0  0  0  0
    0.0273    4.9535   25.7773 C   0  0  0  0  0  0  0  0  0  0  0  0
    1.1630    3.9579   25.9596 C   0  0  0  0  0  0  0  0  0  0  0  0
    1.9275    3.7536   24.6501 C   0  0  0  0  0  0  0  0  0  0  0  0
    4.6608    5.4967   21.0123 N   0  0  0  0  0  0  0  0  0  0  0  0
    5.6940    5.9915   20.2397 C   0  0  0  0  0  0  0  0  0  0  0  0
    6.0242    5.6822   18.8957 C   0  0  0  0  0  0  0  0  0  0  0  0
    7.2168    6.1557   18.5249 N   0  0  0  0  0  0  0  0  0  0  0  0
    7.6391    6.8241   19.6174 N   0  0  0  0  0  0  0  0  0  0  0  0
    8.9564    7.4436   19.5855 C   0  0  0  0  0  0  0  0  0  0  0  0
    9.1207    8.6799   20.4764 C   0  0  0  0  0  0  0  0  0  0  0  0
    9.7499    8.1899   21.7835 C   0  0  0  0  0  0  0  0  0  0  0  0
   10.0793    6.7137   21.5857 C   0  0  0  0  0  0  0  0  0  0  0  0
   10.0512    6.4972   20.0796 C   0  0  0  0  0  0  0  0  0  0  0  0
    6.7357    6.7881   20.6466 C   0  0  0  0  0  0  0  0  0  0  0  0
    2.4572    4.5953   21.9914 H   0  0  0  0  0  0  0  0  0  0  0  0
    3.7360    3.8149   22.9482 H   0  0  0  0  0  0  0  0  0  0  0  0
    0.6719    5.6219   23.1101 H   0  0  0  0  0  0  0  0  0  0  0  0
    1.7751    6.9327   23.5371 H   0  0  0  0  0  0  0  0  0  0  0  0
   -0.2654    6.9230   24.9541 H   0  0  0  0  0  0  0  0  0  0  0  0
    1.2106    6.7483   25.9002 H   0  0  0  0  0  0  0  0  0  0  0  0
   -0.4527    5.1607   26.7399 H   0  0  0  0  0  0  0  0  0  0  0  0
   -0.7381    4.5261   25.1182 H   0  0  0  0  0  0  0  0  0  0  0  0
    1.8505    4.3191   26.7347 H   0  0  0  0  0  0  0  0  0  0  0  0
    0.7623    2.9989   26.3072 H   0  0  0  0  0  0  0  0  0  0  0  0
    2.7570    3.0639   24.8487 H   0  0  0  0  0  0  0  0  0  0  0  0
    1.2656    3.2684   23.9228 H   0  0  0  0  0  0  0  0  0  0  0  0
    4.1318    4.6931   20.6787 H   0  0  0  0  0  0  0  0  0  0  0  0
    5.4583    5.1171   18.1694 H   0  0  0  0  0  0  0  0  0  0  0  0
    9.1297    7.7213   18.5381 H   0  0  0  0  0  0  0  0  0  0  0  0
    9.8162    9.3807   19.9973 H   0  0  0  0  0  0  0  0  0  0  0  0
    8.1879    9.2264   20.6484 H   0  0  0  0  0  0  0  0  0  0  0  0
   10.6578    8.7638   22.0008 H   0  0  0  0  0  0  0  0  0  0  0  0
    9.0703    8.3260   22.6314 H   0  0  0  0  0  0  0  0  0  0  0  0
   11.0471    6.4467   22.0210 H   0  0  0  0  0  0  0  0  0  0  0  0
    9.3191    6.0930   22.0732 H   0  0  0  0  0  0  0  0  0  0  0  0
    9.8762    5.4478   19.8216 H   0  0  0  0  0  0  0  0  0  0  0  0
   11.0165    6.7948   19.6519 H   0  0  0  0  0  0  0  0  0  0  0  0
    6.9319    7.2569   21.6004 H   0  0  0  0  0  0  0  0  0  0  0  0
  1  2  2  0
  2  3  1  0
  3  4  1  0
  4  5  1  0
  5  6  1  0
  6  7  1  0
  7  8  1  0
  8  9  1  0
  2 10  1  0
 10 11  1  0
 11 12  1  0
 12 13  2  0
 13 14  1  0
 14 15  1  0
 15 16  1  0
 16 17  1  0
 17 18  1  0
 18 19  1  0
 14 20  1  0
  9  4  1  0
 20 11  2  0
 19 15  1  0
  3 21  1  0
  3 22  1  0
  5 23  1  0
  5 24  1  0
  6 25  1  0
  6 26  1  0
  7 27  1  0
  7 28  1  0
  8 29  1  0
  8 30  1  0
  9 31  1  0
  9 32  1  0
 10 33  1  0
 12 34  1  0
 15 35  1  0
 16 36  1  0
 16 37  1  0
 17 38  1  0
 17 39  1  0
 18 40  1  0
 18 41  1  0
 19 42  1  0
 19 43  1  0
 20 44  1  0
M  END
>  <Energy>  (1158) 
57.879252998755128

>  <compound_id>  (1158) 
8659

>  <target_id>  (1158) 
1

>  <reference_id>  (1158) 
44

>  <inspiration_ids>  (1158) 
[81, 44]

>  <energy_score>  (1158) 
-51.27864525191313

>  <distance_score>  (1158) 
8.540683620712912

>  <path>  (1158) 
/opt/xchem-fragalysis-2/maxwin/BulkDock/SCRATCH/511016/C8659-P44/C8659-P44.minimised.mol

>  <scratch_subdir>  (1158) 
/opt/xchem-fragalysis-2/maxwin/BulkDock/SCRATCH/511016/C8659-P44

>  <fragmenstein_runtime>  (1158) 
9.986339330673218

>  <fragmenstein_outcome>  (1158) 
too moved

>  <fragmenstein_mode>  (1158) 
expansion

>  <fragmenstein_error>  (1158) 


$$$$
C8660-P81
     RDKit          3D

 53 55  0  0  0  0  0  0  0  0999 V2000
    7.5442    1.3103   20.6165 O   0  0  0  0  0  0  0  0  0  0  0  0
    7.3556    0.1946   20.2516 C   0  0  0  0  0  0  0  0  0  0  0  0
    6.5768   -0.9815   20.9408 N   0  0  0  0  0  0  0  0  0  0  0  0
    5.5649   -1.0249   22.4287 C   0  0  0  0  0  0  0  0  0  0  0  0
    4.8327   -1.6463   24.1027 C   0  0  0  0  0  0  0  0  0  0  0  0
    3.6611   -2.4742   23.9798 O   0  0  0  0  0  0  0  0  0  0  0  0
    4.3752   -0.5806   25.3758 C   0  0  0  0  0  0  0  0  0  0  0  0
    3.1623   -0.7200   26.2397 N   0  0  0  0  0  0  0  0  0  0  0  0
    3.2395   -1.8354   27.1724 C   0  0  0  0  0  0  0  0  0  0  0  0
    1.9143   -2.0096   27.9372 C   0  0  0  0  0  0  0  0  0  0  0  0
    1.1452   -0.7071   28.1719 C   0  0  0  0  0  0  0  0  0  0  0  0
    2.0983    0.4695   28.2377 C   0  0  0  0  0  0  0  0  0  0  0  0
    2.9836    0.5559   26.9885 C   0  0  0  0  0  0  0  0  0  0  0  0
    7.6747   -0.4683   18.9537 N   0  0  0  0  0  0  0  0  0  0  0  0
    8.2902    0.1490   17.5311 C   0  0  0  0  0  0  0  0  0  0  0  0
    8.5537   -0.4818   16.2552 C   0  0  0  0  0  0  0  0  0  0  0  0
    9.3125    0.2515   15.4354 N   0  0  0  0  0  0  0  0  0  0  0  0
    9.3757    1.4371   16.0524 N   0  0  0  0  0  0  0  0  0  0  0  0
   10.2538    2.4986   15.5976 C   0  0  0  0  0  0  0  0  0  0  0  0
   11.0236    2.2284   14.2966 C   0  0  0  0  0  0  0  0  0  0  0  0
   11.3673    3.6203   13.7938 C   0  0  0  0  0  0  0  0  0  0  0  0
   10.0937    4.4053   14.0581 C   0  0  0  0  0  0  0  0  0  0  0  0
    9.5478    3.8490   15.3721 C   0  0  0  0  0  0  0  0  0  0  0  0
    8.6181    1.4653   17.1831 C   0  0  0  0  0  0  0  0  0  0  0  0
    6.5385   -1.7753   20.3157 H   0  0  0  0  0  0  0  0  0  0  0  0
    5.3459   -2.0334   22.1280 H   0  0  0  0  0  0  0  0  0  0  0  0
    4.8466   -0.2911   22.0722 H   0  0  0  0  0  0  0  0  0  0  0  0
    5.6118   -2.2414   24.5592 H   0  0  0  0  0  0  0  0  0  0  0  0
    2.9390   -2.0188   24.4602 H   0  0  0  0  0  0  0  0  0  0  0  0
    5.2103   -0.5463   26.0846 H   0  0  0  0  0  0  0  0  0  0  0  0
    4.2593    0.4119   24.9380 H   0  0  0  0  0  0  0  0  0  0  0  0
    4.0589   -1.6883   27.8885 H   0  0  0  0  0  0  0  0  0  0  0  0
    3.4558   -2.7606   26.6384 H   0  0  0  0  0  0  0  0  0  0  0  0
    1.2631   -2.7171   27.4165 H   0  0  0  0  0  0  0  0  0  0  0  0
    2.1419   -2.4716   28.9063 H   0  0  0  0  0  0  0  0  0  0  0  0
    0.5596   -0.7813   29.0951 H   0  0  0  0  0  0  0  0  0  0  0  0
    0.4258   -0.5459   27.3632 H   0  0  0  0  0  0  0  0  0  0  0  0
    1.5407    1.4039   28.3665 H   0  0  0  0  0  0  0  0  0  0  0  0
    2.7369    0.3558   29.1233 H   0  0  0  0  0  0  0  0  0  0  0  0
    2.5530    1.2981   26.3050 H   0  0  0  0  0  0  0  0  0  0  0  0
    3.9533    0.9623   27.3082 H   0  0  0  0  0  0  0  0  0  0  0  0
    7.3128   -1.3624   18.9605 H   0  0  0  0  0  0  0  0  0  0  0  0
    8.3117   -1.4697   15.8959 H   0  0  0  0  0  0  0  0  0  0  0  0
   10.9887    2.6256   16.4055 H   0  0  0  0  0  0  0  0  0  0  0  0
   10.4075    1.7111   13.5520 H   0  0  0  0  0  0  0  0  0  0  0  0
   11.9180    1.6208   14.4680 H   0  0  0  0  0  0  0  0  0  0  0  0
   12.1995    4.0394   14.3713 H   0  0  0  0  0  0  0  0  0  0  0  0
   11.6456    3.6242   12.7361 H   0  0  0  0  0  0  0  0  0  0  0  0
    9.3711    4.2265   13.2532 H   0  0  0  0  0  0  0  0  0  0  0  0
   10.2739    5.4832   14.1087 H   0  0  0  0  0  0  0  0  0  0  0  0
    8.4563    3.7696   15.3308 H   0  0  0  0  0  0  0  0  0  0  0  0
    9.7872    4.5296   16.1981 H   0  0  0  0  0  0  0  0  0  0  0  0
    8.4410    2.3967   17.6949 H   0  0  0  0  0  0  0  0  0  0  0  0
  1  2  2  0
  2  3  1  0
  3  4  1  0
  4  5  1  0
  5  6  1  0
  5  7  1  0
  7  8  1  0
  8  9  1  0
  9 10  1  0
 10 11  1  0
 11 12  1  0
 12 13  1  0
  2 14  1  0
 14 15  1  0
 15 16  1  0
 16 17  2  0
 17 18  1  0
 18 19  1  0
 19 20  1  0
 20 21  1  0
 21 22  1  0
 22 23  1  0
 18 24  1  0
 13  8  1  0
 24 15  2  0
 23 19  1  0
  3 25  1  0
  4 26  1  0
  4 27  1  0
  5 28  1  0
  6 29  1  0
  7 30  1  0
  7 31  1  0
  9 32  1  0
  9 33  1  0
 10 34  1  0
 10 35  1  0
 11 36  1  0
 11 37  1  0
 12 38  1  0
 12 39  1  0
 13 40  1  0
 13 41  1  0
 14 42  1  0
 16 43  1  0
 19 44  1  0
 20 45  1  0
 20 46  1  0
 21 47  1  0
 21 48  1  0
 22 49  1  0
 22 50  1  0
 23 51  1  0
 23 52  1  0
 24 53  1  0
M  END
>  <Energy>  (1159) 
206.1215275911992

>  <compound_id>  (1159) 
8660

>  <target_id>  (1159) 
1

>  <reference_id>  (1159) 
81

>  <inspiration_ids>  (1159) 
[81, 44]

>  <energy_score>  (1159) 
146.0651035285311

>  <distance_score>  (1159) 
5.647774807120959

>  <path>  (1159) 
/opt/xchem-fragalysis-2/maxwin/BulkDock/SCRATCH/511016/C8660-P81/C8660-P81.minimised.mol

>  <scratch_subdir>  (1159) 
/opt/xchem-fragalysis-2/maxwin/BulkDock/SCRATCH/511016/C8660-P81

>  <fragmenstein_runtime>  (1159) 
12.67128300666809

>  <fragmenstein_outcome>  (1159) 
too moved

>  <fragmenstein_mode>  (1159) 
expansion

>  <fragmenstein_error>  (1159) 


$$$$
C8660-P44
     RDKit          3D

 53 55  0  0  0  0  0  0  0  0999 V2000
    7.2205    1.4810   20.3063 O   0  0  0  0  0  0  0  0  0  0  0  0
    7.0040    0.3789   19.9127 C   0  0  0  0  0  0  0  0  0  0  0  0
    6.0265   -0.9585   20.8603 N   0  0  0  0  0  0  0  0  0  0  0  0
    5.0153   -0.8630   22.5917 C   0  0  0  0  0  0  0  0  0  0  0  0
    4.9491    0.0248   24.2256 C   0  0  0  0  0  0  0  0  0  0  0  0
    4.4610   -0.9910   25.1632 O   0  0  0  0  0  0  0  0  0  0  0  0
    4.2092    1.4289   24.5341 C   0  0  0  0  0  0  0  0  0  0  0  0
    3.0678    1.6105   25.4643 N   0  0  0  0  0  0  0  0  0  0  0  0
    3.2992    1.2474   26.8563 C   0  0  0  0  0  0  0  0  0  0  0  0
    1.9535    1.1660   27.6021 C   0  0  0  0  0  0  0  0  0  0  0  0
    0.9610    2.2653   27.2134 C   0  0  0  0  0  0  0  0  0  0  0  0
    1.6759    3.4340   26.5574 C   0  0  0  0  0  0  0  0  0  0  0  0
    2.5265    2.9834   25.3591 C   0  0  0  0  0  0  0  0  0  0  0  0
    7.2979   -0.1944   18.7346 N   0  0  0  0  0  0  0  0  0  0  0  0
    8.0460    0.2921   17.6040 C   0  0  0  0  0  0  0  0  0  0  0  0
    8.2995   -0.1325   16.2615 C   0  0  0  0  0  0  0  0  0  0  0  0
    9.0483    0.7231   15.5581 N   0  0  0  0  0  0  0  0  0  0  0  0
    9.1548    1.7806   16.3842 N   0  0  0  0  0  0  0  0  0  0  0  0
    9.6160    3.0724   15.9229 C   0  0  0  0  0  0  0  0  0  0  0  0
   10.5195    3.0672   14.6880 C   0  0  0  0  0  0  0  0  0  0  0  0
   10.4519    4.5119   14.2203 C   0  0  0  0  0  0  0  0  0  0  0  0
    8.9846    4.8805   14.3943 C   0  0  0  0  0  0  0  0  0  0  0  0
    8.4789    4.0441   15.5716 C   0  0  0  0  0  0  0  0  0  0  0  0
    8.7007    1.5094   17.6416 C   0  0  0  0  0  0  0  0  0  0  0  0
    5.9569   -1.8055   20.2905 H   0  0  0  0  0  0  0  0  0  0  0  0
    5.2434   -1.8591   23.0875 H   0  0  0  0  0  0  0  0  0  0  0  0
    4.1063   -1.4368   22.6667 H   0  0  0  0  0  0  0  0  0  0  0  0
    5.9280    0.2122   24.6602 H   0  0  0  0  0  0  0  0  0  0  0  0
    5.1605   -1.6636   25.2372 H   0  0  0  0  0  0  0  0  0  0  0  0
    4.9967    2.0737   24.9548 H   0  0  0  0  0  0  0  0  0  0  0  0
    3.9720    1.9108   23.5786 H   0  0  0  0  0  0  0  0  0  0  0  0
    3.9580    1.9798   27.3413 H   0  0  0  0  0  0  0  0  0  0  0  0
    3.7903    0.2788   26.9684 H   0  0  0  0  0  0  0  0  0  0  0  0
    1.4855    0.1900   27.4228 H   0  0  0  0  0  0  0  0  0  0  0  0
    2.1523    1.2190   28.6795 H   0  0  0  0  0  0  0  0  0  0  0  0
    0.4072    2.6003   28.0976 H   0  0  0  0  0  0  0  0  0  0  0  0
    0.2164    1.8588   26.5191 H   0  0  0  0  0  0  0  0  0  0  0  0
    0.9507    4.1893   26.2345 H   0  0  0  0  0  0  0  0  0  0  0  0
    2.3244    3.9154   27.3008 H   0  0  0  0  0  0  0  0  0  0  0  0
    1.9128    3.0359   24.4517 H   0  0  0  0  0  0  0  0  0  0  0  0
    3.3342    3.7170   25.2359 H   0  0  0  0  0  0  0  0  0  0  0  0
    6.8919   -1.0940   18.7197 H   0  0  0  0  0  0  0  0  0  0  0  0
    7.9624   -1.0196   15.7437 H   0  0  0  0  0  0  0  0  0  0  0  0
   10.1719    3.5207   16.7515 H   0  0  0  0  0  0  0  0  0  0  0  0
   10.1394    2.4060   13.9006 H   0  0  0  0  0  0  0  0  0  0  0  0
   11.5417    2.7561   14.9245 H   0  0  0  0  0  0  0  0  0  0  0  0
   11.0774    5.1457   14.8601 H   0  0  0  0  0  0  0  0  0  0  0  0
   10.7899    4.6324   13.1870 H   0  0  0  0  0  0  0  0  0  0  0  0
    8.4243    4.6237   13.4884 H   0  0  0  0  0  0  0  0  0  0  0  0
    8.8531    5.9532   14.5666 H   0  0  0  0  0  0  0  0  0  0  0  0
    7.5483    3.5310   15.3096 H   0  0  0  0  0  0  0  0  0  0  0  0
    8.2512    4.6853   16.4314 H   0  0  0  0  0  0  0  0  0  0  0  0
    8.7622    2.2561   18.4229 H   0  0  0  0  0  0  0  0  0  0  0  0
  1  2  2  0
  2  3  1  0
  3  4  1  0
  4  5  1  0
  5  6  1  0
  5  7  1  0
  7  8  1  0
  8  9  1  0
  9 10  1  0
 10 11  1  0
 11 12  1  0
 12 13  1  0
  2 14  1  0
 14 15  1  0
 15 16  1  0
 16 17  2  0
 17 18  1  0
 18 19  1  0
 19 20  1  0
 20 21  1  0
 21 22  1  0
 22 23  1  0
 18 24  1  0
 13  8  1  0
 24 15  2  0
 23 19  1  0
  3 25  1  0
  4 26  1  0
  4 27  1  0
  5 28  1  0
  6 29  1  0
  7 30  1  0
  7 31  1  0
  9 32  1  0
  9 33  1  0
 10 34  1  0
 10 35  1  0
 11 36  1  0
 11 37  1  0
 12 38  1  0
 12 39  1  0
 13 40  1  0
 13 41  1  0
 14 42  1  0
 16 43  1  0
 19 44  1  0
 20 45  1  0
 20 46  1  0
 21 47  1  0
 21 48  1  0
 22 49  1  0
 22 50  1  0
 23 51  1  0
 23 52  1  0
 24 53  1  0
M  END
>  <Energy>  (1160) 
254.3880723807774

>  <compound_id>  (1160) 
8660

>  <target_id>  (1160) 
1

>  <reference_id>  (1160) 
44

>  <inspiration_ids>  (1160) 
[81, 44]

>  <energy_score>  (1160) 
194.33164831811166

>  <distance_score>  (1160) 
5.496112573035714

>  <path>  (1160) 
/opt/xchem-fragalysis-2/maxwin/BulkDock/SCRATCH/511016/C8660-P44/C8660-P44.minimised.mol

>  <scratch_subdir>  (1160) 
/opt/xchem-fragalysis-2/maxwin/BulkDock/SCRATCH/511016/C8660-P44

>  <fragmenstein_runtime>  (1160) 
10.636094093322754

>  <fragmenstein_outcome>  (1160) 
too moved

>  <fragmenstein_mode>  (1160) 
expansion

>  <fragmenstein_error>  (1160) 


$$$$
C8661-P81
     RDKit          3D

 53 55  0  0  0  0  0  0  0  0999 V2000
    3.6367    1.7880   25.6790 C   0  0  0  0  0  0  0  0  0  0  0  0
    3.8111    0.9542   24.3717 C   0  0  0  0  0  0  0  0  0  0  0  0
    4.3287    1.1190   22.4807 C   0  0  0  0  0  0  0  0  0  0  0  0
    5.6666    0.0404   21.4619 N   0  0  0  0  0  0  0  0  0  0  0  0
    6.6641   -0.1433   19.6390 C   0  0  0  0  0  0  0  0  0  0  0  0
    5.8109   -1.1958   18.1792 C   0  0  0  0  0  0  0  0  0  0  0  0
    7.8136    0.3915   18.1201 C   0  0  0  0  0  0  0  0  0  0  0  0
    8.3225   -0.1759   16.8141 C   0  0  0  0  0  0  0  0  0  0  0  0
    9.1629    0.5778   16.1006 N   0  0  0  0  0  0  0  0  0  0  0  0
    8.9806    1.7872   16.6090 N   0  0  0  0  0  0  0  0  0  0  0  0
    9.4916    3.0233   15.9860 C   0  0  0  0  0  0  0  0  0  0  0  0
   10.6176    2.8145   14.9369 C   0  0  0  0  0  0  0  0  0  0  0  0
   11.2773    4.0825   15.5191 C   0  0  0  0  0  0  0  0  0  0  0  0
   10.5616    3.7440   16.8434 C   0  0  0  0  0  0  0  0  0  0  0  0
    8.1189    1.7839   17.6612 C   0  0  0  0  0  0  0  0  0  0  0  0
    3.4029    2.8238   22.6661 C   0  0  0  0  0  0  0  0  0  0  0  0
    4.0731    3.7734   23.0040 O   0  0  0  0  0  0  0  0  0  0  0  0
    1.9997    2.7169   22.4692 N   0  0  0  0  0  0  0  0  0  0  0  0
    1.6456    3.0308   21.0214 C   0  0  0  0  0  0  0  0  0  0  0  0
    2.0353    4.4093   20.4439 C   0  0  0  0  0  0  0  0  0  0  0  0
    1.2035    5.4986   21.0863 C   0  0  0  0  0  0  0  0  0  0  0  0
    1.1512    5.2003   22.5609 C   0  0  0  0  0  0  0  0  0  0  0  0
    0.8855    3.7066   22.7245 C   0  0  0  0  0  0  0  0  0  0  0  0
    4.5279    1.7718   26.3167 H   0  0  0  0  0  0  0  0  0  0  0  0
    2.8616    1.3126   26.2977 H   0  0  0  0  0  0  0  0  0  0  0  0
    3.2794    2.8092   25.5033 H   0  0  0  0  0  0  0  0  0  0  0  0
    4.0840   -0.0447   24.7635 H   0  0  0  0  0  0  0  0  0  0  0  0
    2.7312    1.0560   24.2272 H   0  0  0  0  0  0  0  0  0  0  0  0
    3.5491    0.8652   21.7819 H   0  0  0  0  0  0  0  0  0  0  0  0
    5.4903   -0.9265   21.7380 H   0  0  0  0  0  0  0  0  0  0  0  0
    7.4540   -0.7589   20.0767 H   0  0  0  0  0  0  0  0  0  0  0  0
    4.7223   -1.1739   18.0379 H   0  0  0  0  0  0  0  0  0  0  0  0
    6.2119   -1.0686   17.1892 H   0  0  0  0  0  0  0  0  0  0  0  0
    5.6048   -2.2019   18.4869 H   0  0  0  0  0  0  0  0  0  0  0  0
    8.1618   -1.1188   16.3162 H   0  0  0  0  0  0  0  0  0  0  0  0
    8.6858    3.6813   15.6359 H   0  0  0  0  0  0  0  0  0  0  0  0
   11.2343    1.9167   15.0650 H   0  0  0  0  0  0  0  0  0  0  0  0
   10.3154    2.8887   13.8890 H   0  0  0  0  0  0  0  0  0  0  0  0
   10.9344    5.0142   15.0548 H   0  0  0  0  0  0  0  0  0  0  0  0
   12.3695    4.0793   15.5528 H   0  0  0  0  0  0  0  0  0  0  0  0
   11.1580    3.0931   17.4926 H   0  0  0  0  0  0  0  0  0  0  0  0
   10.2103    4.6028   17.4211 H   0  0  0  0  0  0  0  0  0  0  0  0
    7.7103    2.7176   18.0099 H   0  0  0  0  0  0  0  0  0  0  0  0
    2.2097    2.2974   20.4557 H   0  0  0  0  0  0  0  0  0  0  0  0
    0.6180    2.7879   20.7340 H   0  0  0  0  0  0  0  0  0  0  0  0
    1.8749    4.4138   19.3597 H   0  0  0  0  0  0  0  0  0  0  0  0
    3.0943    4.6272   20.6054 H   0  0  0  0  0  0  0  0  0  0  0  0
    0.1899    5.4825   20.6674 H   0  0  0  0  0  0  0  0  0  0  0  0
    1.6221    6.4908   20.8902 H   0  0  0  0  0  0  0  0  0  0  0  0
    2.0918    5.4833   23.0458 H   0  0  0  0  0  0  0  0  0  0  0  0
    0.3546    5.7851   23.0338 H   0  0  0  0  0  0  0  0  0  0  0  0
   -0.1144    3.3797   22.3910 H   0  0  0  0  0  0  0  0  0  0  0  0
    0.7825    3.5959   23.8164 H   0  0  0  0  0  0  0  0  0  0  0  0
  1  2  1  0
  2  3  1  0
  3  4  1  0
  4  5  1  0
  5  6  1  0
  5  7  1  0
  7  8  1  0
  8  9  2  0
  9 10  1  0
 10 11  1  0
 11 12  1  0
 12 13  1  0
 13 14  1  0
 10 15  1  0
  3 16  1  0
 16 17  2  0
 16 18  1  0
 18 19  1  0
 19 20  1  0
 20 21  1  0
 21 22  1  0
 22 23  1  0
 15  7  2  0
 23 18  1  0
 14 11  1  0
  1 24  1  0
  1 25  1  0
  1 26  1  0
  2 27  1  0
  2 28  1  0
  3 29  1  0
  4 30  1  0
  5 31  1  0
  6 32  1  0
  6 33  1  0
  6 34  1  0
  8 35  1  0
 11 36  1  0
 12 37  1  0
 12 38  1  0
 13 39  1  0
 13 40  1  0
 14 41  1  0
 14 42  1  0
 15 43  1  0
 19 44  1  0
 19 45  1  0
 20 46  1  0
 20 47  1  0
 21 48  1  0
 21 49  1  0
 22 50  1  0
 22 51  1  0
 23 52  1  0
 23 53  1  0
M  END
>  <Energy>  (1161) 
739.32268540172663

>  <compound_id>  (1161) 
8661

>  <target_id>  (1161) 
1

>  <reference_id>  (1161) 
81

>  <inspiration_ids>  (1161) 
[81, 44]

>  <energy_score>  (1161) 
629.0432411741343

>  <distance_score>  (1161) 
6.512514176515541

>  <path>  (1161) 
/opt/xchem-fragalysis-2/maxwin/BulkDock/SCRATCH/511016/C8661-P81/C8661-P81.minimised.mol

>  <scratch_subdir>  (1161) 
/opt/xchem-fragalysis-2/maxwin/BulkDock/SCRATCH/511016/C8661-P81

>  <fragmenstein_runtime>  (1161) 
15.7207510471344

>  <fragmenstein_outcome>  (1161) 
too moved

>  <fragmenstein_mode>  (1161) 
expansion

>  <fragmenstein_error>  (1161) 


$$$$
C8661-P44
     RDKit          3D

 53 55  0  0  0  0  0  0  0  0999 V2000
    5.4521   -1.6814   25.7168 C   0  0  0  0  0  0  0  0  0  0  0  0
    4.4684   -1.0074   24.7629 C   0  0  0  0  0  0  0  0  0  0  0  0
    5.0775    0.0669   23.8455 C   0  0  0  0  0  0  0  0  0  0  0  0
    4.9534   -0.7900   22.2229 N   0  0  0  0  0  0  0  0  0  0  0  0
    6.1981   -1.1028   20.7620 C   0  0  0  0  0  0  0  0  0  0  0  0
    5.8052   -2.6430   20.7395 C   0  0  0  0  0  0  0  0  0  0  0  0
    7.1512    0.0372   19.5347 C   0  0  0  0  0  0  0  0  0  0  0  0
    7.2737   -0.0257   18.1430 C   0  0  0  0  0  0  0  0  0  0  0  0
    8.3585    0.5396   17.5706 N   0  0  0  0  0  0  0  0  0  0  0  0
    8.3805    1.6343   18.3206 N   0  0  0  0  0  0  0  0  0  0  0  0
    8.2970    3.0044   17.7496 C   0  0  0  0  0  0  0  0  0  0  0  0
    9.2362    3.2569   16.5557 C   0  0  0  0  0  0  0  0  0  0  0  0
    9.5275    4.6439   17.1661 C   0  0  0  0  0  0  0  0  0  0  0  0
    9.0646    4.0853   18.5292 C   0  0  0  0  0  0  0  0  0  0  0  0
    7.8009    1.3055   19.5308 C   0  0  0  0  0  0  0  0  0  0  0  0
    4.3009    1.4794   24.5426 C   0  0  0  0  0  0  0  0  0  0  0  0
    3.2884    1.9269   24.0628 O   0  0  0  0  0  0  0  0  0  0  0  0
    5.1270    1.9810   25.6294 N   0  0  0  0  0  0  0  0  0  0  0  0
    4.6602    1.3924   26.9697 C   0  0  0  0  0  0  0  0  0  0  0  0
    3.1721    1.5650   27.3556 C   0  0  0  0  0  0  0  0  0  0  0  0
    2.8897    3.0156   27.6693 C   0  0  0  0  0  0  0  0  0  0  0  0
    3.6417    3.8595   26.6668 C   0  0  0  0  0  0  0  0  0  0  0  0
    5.0430    3.2655   26.4166 C   0  0  0  0  0  0  0  0  0  0  0  0
    4.9311   -2.0145   26.6212 H   0  0  0  0  0  0  0  0  0  0  0  0
    6.2774   -1.0269   26.0106 H   0  0  0  0  0  0  0  0  0  0  0  0
    5.8607   -2.5802   25.2584 H   0  0  0  0  0  0  0  0  0  0  0  0
    4.0441   -1.8309   24.1995 H   0  0  0  0  0  0  0  0  0  0  0  0
    3.6481   -0.5971   25.3557 H   0  0  0  0  0  0  0  0  0  0  0  0
    4.8168    0.7671   23.0521 H   0  0  0  0  0  0  0  0  0  0  0  0
    4.8169   -1.6952   22.6558 H   0  0  0  0  0  0  0  0  0  0  0  0
    7.2098   -1.3538   20.8933 H   0  0  0  0  0  0  0  0  0  0  0  0
    5.3490   -3.1111   19.8763 H   0  0  0  0  0  0  0  0  0  0  0  0
    6.7316   -3.1434   21.1049 H   0  0  0  0  0  0  0  0  0  0  0  0
    5.2730   -2.9187   21.6089 H   0  0  0  0  0  0  0  0  0  0  0  0
    6.5735   -0.5332   17.4813 H   0  0  0  0  0  0  0  0  0  0  0  0
    7.2642    3.3097   17.5411 H   0  0  0  0  0  0  0  0  0  0  0  0
   10.1065    2.5989   16.4867 H   0  0  0  0  0  0  0  0  0  0  0  0
    8.7477    3.2785   15.5768 H   0  0  0  0  0  0  0  0  0  0  0  0
    8.8783    5.4366   16.7763 H   0  0  0  0  0  0  0  0  0  0  0  0
   10.5656    4.9805   17.1145 H   0  0  0  0  0  0  0  0  0  0  0  0
    9.8628    3.7232   19.1816 H   0  0  0  0  0  0  0  0  0  0  0  0
    8.4401    4.7725   19.1076 H   0  0  0  0  0  0  0  0  0  0  0  0
    7.6531    2.1483   20.1534 H   0  0  0  0  0  0  0  0  0  0  0  0
    4.7844    0.3205   26.8693 H   0  0  0  0  0  0  0  0  0  0  0  0
    5.3480    1.5818   27.8125 H   0  0  0  0  0  0  0  0  0  0  0  0
    2.9406    0.9451   28.2293 H   0  0  0  0  0  0  0  0  0  0  0  0
    2.5200    1.2237   26.5472 H   0  0  0  0  0  0  0  0  0  0  0  0
    3.2522    3.2447   28.6790 H   0  0  0  0  0  0  0  0  0  0  0  0
    1.8164    3.2302   27.6537 H   0  0  0  0  0  0  0  0  0  0  0  0
    3.0822    3.9118   25.7262 H   0  0  0  0  0  0  0  0  0  0  0  0
    3.7324    4.8865   27.0384 H   0  0  0  0  0  0  0  0  0  0  0  0
    5.4910    3.9715   25.6992 H   0  0  0  0  0  0  0  0  0  0  0  0
    5.7402    3.3516   27.2663 H   0  0  0  0  0  0  0  0  0  0  0  0
  1  2  1  0
  2  3  1  0
  3  4  1  0
  4  5  1  0
  5  6  1  0
  5  7  1  0
  7  8  1  0
  8  9  2  0
  9 10  1  0
 10 11  1  0
 11 12  1  0
 12 13  1  0
 13 14  1  0
 10 15  1  0
  3 16  1  0
 16 17  2  0
 16 18  1  0
 18 19  1  0
 19 20  1  0
 20 21  1  0
 21 22  1  0
 22 23  1  0
 15  7  2  0
 23 18  1  0
 14 11  1  0
  1 24  1  0
  1 25  1  0
  1 26  1  0
  2 27  1  0
  2 28  1  0
  3 29  1  0
  4 30  1  0
  5 31  1  0
  6 32  1  0
  6 33  1  0
  6 34  1  0
  8 35  1  0
 11 36  1  0
 12 37  1  0
 12 38  1  0
 13 39  1  0
 13 40  1  0
 14 41  1  0
 14 42  1  0
 15 43  1  0
 19 44  1  0
 19 45  1  0
 20 46  1  0
 20 47  1  0
 21 48  1  0
 21 49  1  0
 22 50  1  0
 22 51  1  0
 23 52  1  0
 23 53  1  0
M  END
>  <Energy>  (1162) 
498.09544748656822

>  <compound_id>  (1162) 
8661

>  <target_id>  (1162) 
1

>  <reference_id>  (1162) 
44

>  <inspiration_ids>  (1162) 
[81, 44]

>  <energy_score>  (1162) 
387.81600325899086

>  <distance_score>  (1162) 
6.387573600470427

>  <path>  (1162) 
/opt/xchem-fragalysis-2/maxwin/BulkDock/SCRATCH/511016/C8661-P44/C8661-P44.minimised.mol

>  <scratch_subdir>  (1162) 
/opt/xchem-fragalysis-2/maxwin/BulkDock/SCRATCH/511016/C8661-P44

>  <fragmenstein_runtime>  (1162) 
12.601670980453491

>  <fragmenstein_outcome>  (1162) 
too moved

>  <fragmenstein_mode>  (1162) 
expansion

>  <fragmenstein_error>  (1162) 


$$$$
C8662-P81
     RDKit          3D

 47 48  0  0  0  0  0  0  0  0999 V2000
    8.2755   -0.9035   16.2403 C   0  0  0  0  0  0  0  0  0  0  0  0
    8.2371   -0.2188   17.8491 C   0  0  0  0  0  0  0  0  0  0  0  0
    7.4240    0.1221   19.6422 C   0  0  0  0  0  0  0  0  0  0  0  0
    7.3477    1.2909   19.8207 O   0  0  0  0  0  0  0  0  0  0  0  0
    6.8191   -1.0327   20.6118 N   0  0  0  0  0  0  0  0  0  0  0  0
    5.6727   -0.9305   22.1908 C   0  0  0  0  0  0  0  0  0  0  0  0
    4.9581   -1.6089   23.9535 C   0  0  0  0  0  0  0  0  0  0  0  0
    4.6331   -0.4468   24.8397 O   0  0  0  0  0  0  0  0  0  0  0  0
    3.6140   -2.2505   24.8048 C   0  0  0  0  0  0  0  0  0  0  0  0
    2.8698   -1.5614   26.0936 N   0  0  0  0  0  0  0  0  0  0  0  0
    2.3456   -2.5077   27.0822 C   0  0  0  0  0  0  0  0  0  0  0  0
    1.2105   -1.9208   27.9516 C   0  0  0  0  0  0  0  0  0  0  0  0
    1.3716   -0.4310   28.2218 C   0  0  0  0  0  0  0  0  0  0  0  0
    2.8493   -0.1031   28.2296 C   0  0  0  0  0  0  0  0  0  0  0  0
    3.5036   -0.4585   26.8749 C   0  0  0  0  0  0  0  0  0  0  0  0
    8.8187    1.2736   17.1296 C   0  0  0  0  0  0  0  0  0  0  0  0
    8.2445    2.5353   17.0870 C   0  0  0  0  0  0  0  0  0  0  0  0
    9.0859    3.3370   16.3117 C   0  0  0  0  0  0  0  0  0  0  0  0
   10.1128    2.6565   15.8222 N   0  0  0  0  0  0  0  0  0  0  0  0
    9.9616    1.4134   16.3263 N   0  0  0  0  0  0  0  0  0  0  0  0
   10.9414    0.4577   15.8554 C   0  0  0  0  0  0  0  0  0  0  0  0
    7.4197   -1.5276   15.9519 H   0  0  0  0  0  0  0  0  0  0  0  0
    8.2575   -0.1460   15.4550 H   0  0  0  0  0  0  0  0  0  0  0  0
    9.1844   -1.4831   16.0777 H   0  0  0  0  0  0  0  0  0  0  0  0
    7.2189   -0.3651   17.5893 H   0  0  0  0  0  0  0  0  0  0  0  0
    6.9470   -1.8984   20.1896 H   0  0  0  0  0  0  0  0  0  0  0  0
    5.3791   -1.9221   21.8989 H   0  0  0  0  0  0  0  0  0  0  0  0
    5.0163   -0.1024   21.9169 H   0  0  0  0  0  0  0  0  0  0  0  0
    5.7665   -2.1145   24.4556 H   0  0  0  0  0  0  0  0  0  0  0  0
    3.8498   -0.0489   24.3991 H   0  0  0  0  0  0  0  0  0  0  0  0
    3.9509   -3.1945   25.2097 H   0  0  0  0  0  0  0  0  0  0  0  0
    2.8796   -2.5258   24.0571 H   0  0  0  0  0  0  0  0  0  0  0  0
    1.9802   -3.4286   26.6379 H   0  0  0  0  0  0  0  0  0  0  0  0
    3.1606   -2.8000   27.7579 H   0  0  0  0  0  0  0  0  0  0  0  0
    0.2279   -2.0984   27.5142 H   0  0  0  0  0  0  0  0  0  0  0  0
    1.2093   -2.4606   28.9075 H   0  0  0  0  0  0  0  0  0  0  0  0
    0.8624    0.1527   27.4465 H   0  0  0  0  0  0  0  0  0  0  0  0
    0.9064   -0.1668   29.1776 H   0  0  0  0  0  0  0  0  0  0  0  0
    3.0017    0.9602   28.4478 H   0  0  0  0  0  0  0  0  0  0  0  0
    3.3436   -0.6639   29.0335 H   0  0  0  0  0  0  0  0  0  0  0  0
    3.4180    0.4798   26.3141 H   0  0  0  0  0  0  0  0  0  0  0  0
    4.5570   -0.6823   27.0877 H   0  0  0  0  0  0  0  0  0  0  0  0
    7.3392    2.8552   17.5782 H   0  0  0  0  0  0  0  0  0  0  0  0
    8.9839    4.3874   16.0743 H   0  0  0  0  0  0  0  0  0  0  0  0
   10.6681    0.1606   14.8394 H   0  0  0  0  0  0  0  0  0  0  0  0
   11.9231    0.9416   15.8469 H   0  0  0  0  0  0  0  0  0  0  0  0
   10.9943   -0.4088   16.5055 H   0  0  0  0  0  0  0  0  0  0  0  0
  1  2  1  0
  2  3  1  0
  3  4  2  0
  3  5  1  0
  5  6  1  0
  6  7  1  0
  7  8  1  0
  7  9  1  0
  9 10  1  0
 10 11  1  0
 11 12  1  0
 12 13  1  0
 13 14  1  0
 14 15  1  0
  2 16  1  0
 16 17  2  0
 17 18  1  0
 18 19  2  0
 19 20  1  0
 20 21  1  0
 15 10  1  0
 20 16  1  0
  1 22  1  0
  1 23  1  0
  1 24  1  0
  2 25  1  0
  5 26  1  0
  6 27  1  0
  6 28  1  0
  7 29  1  0
  8 30  1  0
  9 31  1  0
  9 32  1  0
 11 33  1  0
 11 34  1  0
 12 35  1  0
 12 36  1  0
 13 37  1  0
 13 38  1  0
 14 39  1  0
 14 40  1  0
 15 41  1  0
 15 42  1  0
 17 43  1  0
 18 44  1  0
 21 45  1  0
 21 46  1  0
 21 47  1  0
M  END
>  <Energy>  (1163) 
516.39733678945527

>  <compound_id>  (1163) 
8662

>  <target_id>  (1163) 
1

>  <reference_id>  (1163) 
81

>  <inspiration_ids>  (1163) 
[81, 44]

>  <energy_score>  (1163) 
417.31225529389417

>  <distance_score>  (1163) 
5.9667900378267245

>  <path>  (1163) 
/opt/xchem-fragalysis-2/maxwin/BulkDock/SCRATCH/511016/C8662-P81/C8662-P81.minimised.mol

>  <scratch_subdir>  (1163) 
/opt/xchem-fragalysis-2/maxwin/BulkDock/SCRATCH/511016/C8662-P81

>  <fragmenstein_runtime>  (1163) 
9.972712278366089

>  <fragmenstein_outcome>  (1163) 
too moved

>  <fragmenstein_mode>  (1163) 
expansion

>  <fragmenstein_error>  (1163) 


$$$$
C8662-P44
     RDKit          3D

 47 48  0  0  0  0  0  0  0  0999 V2000
    9.3582    2.5068   27.7409 C   0  0  0  0  0  0  0  0  0  0  0  0
    9.4723    1.3921   26.7096 C   0  0  0  0  0  0  0  0  0  0  0  0
    8.1820    0.5253   26.4596 C   0  0  0  0  0  0  0  0  0  0  0  0
    8.3748   -0.6176   26.1476 O   0  0  0  0  0  0  0  0  0  0  0  0
    6.9520    1.2527   26.6496 N   0  0  0  0  0  0  0  0  0  0  0  0
    5.5662    0.8601   26.4307 C   0  0  0  0  0  0  0  0  0  0  0  0
    4.5604    1.3719   27.4888 C   0  0  0  0  0  0  0  0  0  0  0  0
    4.6892    2.7952   27.5982 O   0  0  0  0  0  0  0  0  0  0  0  0
    3.1082    0.9596   27.0984 C   0  0  0  0  0  0  0  0  0  0  0  0
    2.0139    1.7169   27.7717 N   0  0  0  0  0  0  0  0  0  0  0  0
    0.8448    0.8246   27.9548 C   0  0  0  0  0  0  0  0  0  0  0  0
   -0.3557    1.5401   28.5771 C   0  0  0  0  0  0  0  0  0  0  0  0
   -0.7580    2.7634   27.7654 C   0  0  0  0  0  0  0  0  0  0  0  0
    0.4518    3.6634   27.5654 C   0  0  0  0  0  0  0  0  0  0  0  0
    1.6122    2.8828   26.9454 C   0  0  0  0  0  0  0  0  0  0  0  0
   10.2181    1.7092   25.4097 C   0  0  0  0  0  0  0  0  0  0  0  0
   10.9144    0.8210   24.6021 C   0  0  0  0  0  0  0  0  0  0  0  0
   11.4886    1.5850   23.5763 C   0  0  0  0  0  0  0  0  0  0  0  0
   11.1857    2.8737   23.6922 N   0  0  0  0  0  0  0  0  0  0  0  0
   10.4431    2.9358   24.8204 N   0  0  0  0  0  0  0  0  0  0  0  0
    9.9835    4.2420   25.2332 C   0  0  0  0  0  0  0  0  0  0  0  0
    8.9167    2.1233   28.6680 H   0  0  0  0  0  0  0  0  0  0  0  0
   10.3456    2.9117   27.9887 H   0  0  0  0  0  0  0  0  0  0  0  0
    8.7304    3.3385   27.4144 H   0  0  0  0  0  0  0  0  0  0  0  0
   10.1370    0.6709   27.2178 H   0  0  0  0  0  0  0  0  0  0  0  0
    7.1673    2.2230   26.8298 H   0  0  0  0  0  0  0  0  0  0  0  0
    5.5289   -0.2319   26.3561 H   0  0  0  0  0  0  0  0  0  0  0  0
    5.3032    1.2728   25.4513 H   0  0  0  0  0  0  0  0  0  0  0  0
    4.8121    0.9567   28.4716 H   0  0  0  0  0  0  0  0  0  0  0  0
    3.9576    3.0543   28.1929 H   0  0  0  0  0  0  0  0  0  0  0  0
    3.0274   -0.1122   27.3263 H   0  0  0  0  0  0  0  0  0  0  0  0
    2.9947    1.0364   26.0108 H   0  0  0  0  0  0  0  0  0  0  0  0
    0.5393    0.3854   26.9991 H   0  0  0  0  0  0  0  0  0  0  0  0
    1.1241   -0.0036   28.6177 H   0  0  0  0  0  0  0  0  0  0  0  0
   -1.2030    0.8485   28.6478 H   0  0  0  0  0  0  0  0  0  0  0  0
   -0.1038    1.8449   29.6006 H   0  0  0  0  0  0  0  0  0  0  0  0
   -1.1512    2.4474   26.7913 H   0  0  0  0  0  0  0  0  0  0  0  0
   -1.5576    3.3135   28.2718 H   0  0  0  0  0  0  0  0  0  0  0  0
    0.1821    4.5028   26.9145 H   0  0  0  0  0  0  0  0  0  0  0  0
    0.7631    4.0896   28.5274 H   0  0  0  0  0  0  0  0  0  0  0  0
    1.3173    2.5617   25.9384 H   0  0  0  0  0  0  0  0  0  0  0  0
    2.4497    3.5751   26.8179 H   0  0  0  0  0  0  0  0  0  0  0  0
   11.0064   -0.2462   24.7563 H   0  0  0  0  0  0  0  0  0  0  0  0
   12.1217    1.2593   22.7638 H   0  0  0  0  0  0  0  0  0  0  0  0
   10.1979    4.9701   24.4453 H   0  0  0  0  0  0  0  0  0  0  0  0
   10.5161    4.5265   26.1427 H   0  0  0  0  0  0  0  0  0  0  0  0
    8.9039    4.2016   25.3907 H   0  0  0  0  0  0  0  0  0  0  0  0
  1  2  1  0
  2  3  1  0
  3  4  2  0
  3  5  1  0
  5  6  1  0
  6  7  1  0
  7  8  1  0
  7  9  1  0
  9 10  1  0
 10 11  1  0
 11 12  1  0
 12 13  1  0
 13 14  1  0
 14 15  1  0
  2 16  1  0
 16 17  2  0
 17 18  1  0
 18 19  2  0
 19 20  1  0
 20 21  1  0
 15 10  1  0
 20 16  1  0
  1 22  1  0
  1 23  1  0
  1 24  1  0
  2 25  1  0
  5 26  1  0
  6 27  1  0
  6 28  1  0
  7 29  1  0
  8 30  1  0
  9 31  1  0
  9 32  1  0
 11 33  1  0
 11 34  1  0
 12 35  1  0
 12 36  1  0
 13 37  1  0
 13 38  1  0
 14 39  1  0
 14 40  1  0
 15 41  1  0
 15 42  1  0
 17 43  1  0
 18 44  1  0
 21 45  1  0
 21 46  1  0
 21 47  1  0
M  END
>  <Energy>  (1164) 
68.635432821310076

>  <compound_id>  (1164) 
8662

>  <target_id>  (1164) 
1

>  <reference_id>  (1164) 
44

>  <inspiration_ids>  (1164) 
[81, 44]

>  <energy_score>  (1164) 
-30.449648674248465

>  <distance_score>  (1164) 
6.921797241623307

>  <path>  (1164) 
/opt/xchem-fragalysis-2/maxwin/BulkDock/SCRATCH/511016/C8662-P44/C8662-P44.minimised.mol

>  <scratch_subdir>  (1164) 
/opt/xchem-fragalysis-2/maxwin/BulkDock/SCRATCH/511016/C8662-P44

>  <fragmenstein_runtime>  (1164) 
10.00921106338501

>  <fragmenstein_outcome>  (1164) 
too moved

>  <fragmenstein_mode>  (1164) 
expansion

>  <fragmenstein_error>  (1164) 


$$$$
C8663-P81
     RDKit          3D

 53 54  0  0  0  0  0  0  0  0999 V2000
    7.8951   -2.9599   25.2951 C   0  0  0  0  0  0  0  0  0  0  0  0
    7.1868   -3.5737   23.4960 C   0  0  0  0  0  0  0  0  0  0  0  0
    8.3443   -3.4849   21.6562 C   0  0  0  0  0  0  0  0  0  0  0  0
   10.6773   -3.3054   21.8551 C   0  0  0  0  0  0  0  0  0  0  0  0
   12.0378   -3.6157   20.9105 N   0  0  0  0  0  0  0  0  0  0  0  0
   12.7164   -4.8421   20.6008 C   0  0  0  0  0  0  0  0  0  0  0  0
   12.4438   -5.9778   20.8705 O   0  0  0  0  0  0  0  0  0  0  0  0
   13.9997   -4.5241   19.8016 C   0  0  0  0  0  0  0  0  0  0  0  0
   13.8287   -3.6563   18.5777 C   0  0  0  0  0  0  0  0  0  0  0  0
   13.2231   -3.9450   17.3277 C   0  0  0  0  0  0  0  0  0  0  0  0
   13.3873   -2.8159   16.5595 C   0  0  0  0  0  0  0  0  0  0  0  0
   14.0886   -1.9459   17.3332 N   0  0  0  0  0  0  0  0  0  0  0  0
   14.5465   -0.6278   16.9670 C   0  0  0  0  0  0  0  0  0  0  0  0
   14.3535   -2.4190   18.5654 N   0  0  0  0  0  0  0  0  0  0  0  0
    5.7081   -2.3475   23.9443 N   0  0  0  0  0  0  0  0  0  0  0  0
    5.1960   -1.7681   25.4063 C   0  0  0  0  0  0  0  0  0  0  0  0
    5.6750   -1.9068   26.5311 O   0  0  0  0  0  0  0  0  0  0  0  0
    3.8928   -0.9500   25.4050 C   0  0  0  0  0  0  0  0  0  0  0  0
    3.4840   -0.4394   26.7838 N   0  0  0  0  0  0  0  0  0  0  0  0
    2.4684   -1.3020   27.3878 C   0  0  0  0  0  0  0  0  0  0  0  0
    1.8978   -0.7636   28.7015 C   0  0  0  0  0  0  0  0  0  0  0  0
    1.4183    0.6739   28.5519 C   0  0  0  0  0  0  0  0  0  0  0  0
    2.5781    1.5296   28.0705 C   0  0  0  0  0  0  0  0  0  0  0  0
    3.1597    0.9902   26.7630 C   0  0  0  0  0  0  0  0  0  0  0  0
    8.8283   -2.3462   25.2220 H   0  0  0  0  0  0  0  0  0  0  0  0
    7.3697   -2.1468   25.7452 H   0  0  0  0  0  0  0  0  0  0  0  0
    8.0919   -3.6987   26.0810 H   0  0  0  0  0  0  0  0  0  0  0  0
    6.8849   -4.6000   23.5956 H   0  0  0  0  0  0  0  0  0  0  0  0
    7.7227   -2.7824   21.2274 H   0  0  0  0  0  0  0  0  0  0  0  0
    8.0443   -4.3908   21.0598 H   0  0  0  0  0  0  0  0  0  0  0  0
   11.2614   -4.1396   22.4953 H   0  0  0  0  0  0  0  0  0  0  0  0
   11.0403   -2.8246   22.8760 H   0  0  0  0  0  0  0  0  0  0  0  0
   12.6025   -2.8372   20.5936 H   0  0  0  0  0  0  0  0  0  0  0  0
   14.7038   -4.0548   20.5012 H   0  0  0  0  0  0  0  0  0  0  0  0
   14.4616   -5.4676   19.4952 H   0  0  0  0  0  0  0  0  0  0  0  0
   12.7330   -4.8479   17.0063 H   0  0  0  0  0  0  0  0  0  0  0  0
   13.0904   -2.5837   15.5463 H   0  0  0  0  0  0  0  0  0  0  0  0
   14.0919    0.0959   17.6484 H   0  0  0  0  0  0  0  0  0  0  0  0
   15.6357   -0.6054   17.0514 H   0  0  0  0  0  0  0  0  0  0  0  0
   14.2468   -0.4113   15.9387 H   0  0  0  0  0  0  0  0  0  0  0  0
    5.1199   -1.9715   23.2020 H   0  0  0  0  0  0  0  0  0  0  0  0
    4.1064   -0.0475   24.8525 H   0  0  0  0  0  0  0  0  0  0  0  0
    3.1097   -1.5716   24.9753 H   0  0  0  0  0  0  0  0  0  0  0  0
    1.6273   -1.4408   26.7142 H   0  0  0  0  0  0  0  0  0  0  0  0
    2.8951   -2.2950   27.5719 H   0  0  0  0  0  0  0  0  0  0  0  0
    2.6659   -0.8169   29.4834 H   0  0  0  0  0  0  0  0  0  0  0  0
    1.0659   -1.3985   29.0276 H   0  0  0  0  0  0  0  0  0  0  0  0
    0.5876    0.7235   27.8379 H   0  0  0  0  0  0  0  0  0  0  0  0
    1.0484    1.0480   29.5127 H   0  0  0  0  0  0  0  0  0  0  0  0
    3.3624    1.5505   28.8377 H   0  0  0  0  0  0  0  0  0  0  0  0
    2.2446    2.5637   27.9276 H   0  0  0  0  0  0  0  0  0  0  0  0
    2.4653    1.2400   25.9573 H   0  0  0  0  0  0  0  0  0  0  0  0
    4.0787    1.5512   26.5572 H   0  0  0  0  0  0  0  0  0  0  0  0
  1  2  1  0
  2  3  1  0
  3  4  1  0
  4  5  1  0
  5  6  1  0
  6  7  2  0
  6  8  1  0
  8  9  1  0
  9 10  1  0
 10 11  2  0
 11 12  1  0
 12 13  1  0
 12 14  1  0
  2 15  1  0
 15 16  1  0
 16 17  2  0
 16 18  1  0
 18 19  1  0
 19 20  1  0
 20 21  1  0
 21 22  1  0
 22 23  1  0
 23 24  1  0
 14  9  2  0
 24 19  1  0
  1 25  1  0
  1 26  1  0
  1 27  1  0
  2 28  1  0
  3 29  1  0
  3 30  1  0
  4 31  1  0
  4 32  1  0
  5 33  1  0
  8 34  1  0
  8 35  1  0
 10 36  1  0
 11 37  1  0
 13 38  1  0
 13 39  1  0
 13 40  1  0
 15 41  1  0
 18 42  1  0
 18 43  1  0
 20 44  1  0
 20 45  1  0
 21 46  1  0
 21 47  1  0
 22 48  1  0
 22 49  1  0
 23 50  1  0
 23 51  1  0
 24 52  1  0
 24 53  1  0
M  END
>  <Energy>  (1165) 
652.38113594579261

>  <compound_id>  (1165) 
8663

>  <target_id>  (1165) 
1

>  <reference_id>  (1165) 
81

>  <inspiration_ids>  (1165) 
[81, 44]

>  <energy_score>  (1165) 
568.9845055224255

>  <distance_score>  (1165) 
4.992615601620497

>  <path>  (1165) 
/opt/xchem-fragalysis-2/maxwin/BulkDock/SCRATCH/511016/C8663-P81/C8663-P81.minimised.mol

>  <scratch_subdir>  (1165) 
/opt/xchem-fragalysis-2/maxwin/BulkDock/SCRATCH/511016/C8663-P81

>  <fragmenstein_runtime>  (1165) 
20.365386724472046

>  <fragmenstein_outcome>  (1165) 
too moved

>  <fragmenstein_mode>  (1165) 
expansion

>  <fragmenstein_error>  (1165) 


$$$$
C8663-P44
     RDKit          3D

 53 54  0  0  0  0  0  0  0  0999 V2000
    5.5763   -6.7753   24.9593 C   0  0  0  0  0  0  0  0  0  0  0  0
    6.5294   -5.6188   24.6532 C   0  0  0  0  0  0  0  0  0  0  0  0
    6.7806   -5.3475   22.9159 C   0  0  0  0  0  0  0  0  0  0  0  0
    7.5260   -4.5671   21.2235 C   0  0  0  0  0  0  0  0  0  0  0  0
    9.1990   -4.4634   20.6103 N   0  0  0  0  0  0  0  0  0  0  0  0
   10.5796   -5.5457   20.7929 C   0  0  0  0  0  0  0  0  0  0  0  0
   10.6529   -6.6681   21.3167 O   0  0  0  0  0  0  0  0  0  0  0  0
   12.1352   -5.0179   20.3310 C   0  0  0  0  0  0  0  0  0  0  0  0
   12.7687   -4.3035   19.1090 C   0  0  0  0  0  0  0  0  0  0  0  0
   12.4648   -4.2369   17.7129 C   0  0  0  0  0  0  0  0  0  0  0  0
   13.4014   -3.4096   17.1419 C   0  0  0  0  0  0  0  0  0  0  0  0
   14.2322   -3.0626   18.1550 N   0  0  0  0  0  0  0  0  0  0  0  0
   15.4368   -2.2758   18.0574 C   0  0  0  0  0  0  0  0  0  0  0  0
   13.8499   -3.5301   19.3542 N   0  0  0  0  0  0  0  0  0  0  0  0
    6.2231   -4.4741   25.5585 N   0  0  0  0  0  0  0  0  0  0  0  0
    4.9429   -3.9031   25.9918 C   0  0  0  0  0  0  0  0  0  0  0  0
    3.8160   -4.2648   25.7882 O   0  0  0  0  0  0  0  0  0  0  0  0
    5.2808   -2.6868   26.9444 C   0  0  0  0  0  0  0  0  0  0  0  0
    4.2561   -1.6690   27.2505 N   0  0  0  0  0  0  0  0  0  0  0  0
    3.0369   -2.0898   27.9206 C   0  0  0  0  0  0  0  0  0  0  0  0
    1.9884   -0.9759   28.0861 C   0  0  0  0  0  0  0  0  0  0  0  0
    2.6359    0.3841   28.2726 C   0  0  0  0  0  0  0  0  0  0  0  0
    3.5528    0.7258   27.1004 C   0  0  0  0  0  0  0  0  0  0  0  0
    4.1982   -0.4897   26.4090 C   0  0  0  0  0  0  0  0  0  0  0  0
    6.0632   -7.7213   24.7317 H   0  0  0  0  0  0  0  0  0  0  0  0
    5.3276   -6.8131   26.0265 H   0  0  0  0  0  0  0  0  0  0  0  0
    4.6417   -6.7176   24.4093 H   0  0  0  0  0  0  0  0  0  0  0  0
    7.4690   -5.9760   25.0917 H   0  0  0  0  0  0  0  0  0  0  0  0
    6.3863   -6.3150   22.5949 H   0  0  0  0  0  0  0  0  0  0  0  0
    6.2638   -4.4192   23.1329 H   0  0  0  0  0  0  0  0  0  0  0  0
    6.9809   -4.7808   20.2476 H   0  0  0  0  0  0  0  0  0  0  0  0
    7.3007   -3.4923   21.3545 H   0  0  0  0  0  0  0  0  0  0  0  0
    9.4795   -3.6391   20.2353 H   0  0  0  0  0  0  0  0  0  0  0  0
   12.7791   -5.8873   20.5112 H   0  0  0  0  0  0  0  0  0  0  0  0
   12.3659   -4.3561   21.1861 H   0  0  0  0  0  0  0  0  0  0  0  0
   11.6645   -4.7109   17.1699 H   0  0  0  0  0  0  0  0  0  0  0  0
   13.5586   -3.0953   16.1204 H   0  0  0  0  0  0  0  0  0  0  0  0
   15.3789   -1.4582   18.7804 H   0  0  0  0  0  0  0  0  0  0  0  0
   16.2881   -2.9242   18.2787 H   0  0  0  0  0  0  0  0  0  0  0  0
   15.5261   -1.8708   17.0464 H   0  0  0  0  0  0  0  0  0  0  0  0
    6.9762   -3.8577   25.8446 H   0  0  0  0  0  0  0  0  0  0  0  0
    6.1669   -2.1710   26.5545 H   0  0  0  0  0  0  0  0  0  0  0  0
    5.5929   -3.1389   27.8952 H   0  0  0  0  0  0  0  0  0  0  0  0
    2.5598   -2.9343   27.4179 H   0  0  0  0  0  0  0  0  0  0  0  0
    3.3111   -2.4457   28.9216 H   0  0  0  0  0  0  0  0  0  0  0  0
    1.3468   -1.2059   28.9446 H   0  0  0  0  0  0  0  0  0  0  0  0
    1.3346   -0.9316   27.2133 H   0  0  0  0  0  0  0  0  0  0  0  0
    1.8733    1.1619   28.3907 H   0  0  0  0  0  0  0  0  0  0  0  0
    3.2229    0.3769   29.1998 H   0  0  0  0  0  0  0  0  0  0  0  0
    4.3370    1.4022   27.4629 H   0  0  0  0  0  0  0  0  0  0  0  0
    2.9866    1.2906   26.3499 H   0  0  0  0  0  0  0  0  0  0  0  0
    3.6799   -0.6932   25.4728 H   0  0  0  0  0  0  0  0  0  0  0  0
    5.2098   -0.1856   26.1104 H   0  0  0  0  0  0  0  0  0  0  0  0
  1  2  1  0
  2  3  1  0
  3  4  1  0
  4  5  1  0
  5  6  1  0
  6  7  2  0
  6  8  1  0
  8  9  1  0
  9 10  1  0
 10 11  2  0
 11 12  1  0
 12 13  1  0
 12 14  1  0
  2 15  1  0
 15 16  1  0
 16 17  2  0
 16 18  1  0
 18 19  1  0
 19 20  1  0
 20 21  1  0
 21 22  1  0
 22 23  1  0
 23 24  1  0
 14  9  2  0
 24 19  1  0
  1 25  1  0
  1 26  1  0
  1 27  1  0
  2 28  1  0
  3 29  1  0
  3 30  1  0
  4 31  1  0
  4 32  1  0
  5 33  1  0
  8 34  1  0
  8 35  1  0
 10 36  1  0
 11 37  1  0
 13 38  1  0
 13 39  1  0
 13 40  1  0
 15 41  1  0
 18 42  1  0
 18 43  1  0
 20 44  1  0
 20 45  1  0
 21 46  1  0
 21 47  1  0
 22 48  1  0
 22 49  1  0
 23 50  1  0
 23 51  1  0
 24 52  1  0
 24 53  1  0
M  END
>  <Energy>  (1166) 
319.06646623150584

>  <compound_id>  (1166) 
8663

>  <target_id>  (1166) 
1

>  <reference_id>  (1166) 
44

>  <inspiration_ids>  (1166) 
[81, 44]

>  <energy_score>  (1166) 
235.6698358081415

>  <distance_score>  (1166) 
5.883629901642194

>  <path>  (1166) 
/opt/xchem-fragalysis-2/maxwin/BulkDock/SCRATCH/511016/C8663-P44/C8663-P44.minimised.mol

>  <scratch_subdir>  (1166) 
/opt/xchem-fragalysis-2/maxwin/BulkDock/SCRATCH/511016/C8663-P44

>  <fragmenstein_runtime>  (1166) 
16.328967809677124

>  <fragmenstein_outcome>  (1166) 
too moved

>  <fragmenstein_mode>  (1166) 
expansion

>  <fragmenstein_error>  (1166) 


$$$$
C23879-P115
     RDKit          3D

 51 52  0  0  0  0  0  0  0  0999 V2000
   13.4185   -4.7888   22.2407 C   0  0  0  0  0  0  0  0  0  0  0  0
   13.3079   -6.1599   22.9367 C   0  0  0  0  0  0  0  0  0  0  0  0
   13.1598   -7.3406   21.9474 C   0  0  0  0  0  0  0  0  0  0  0  0
   14.4736   -8.0671   21.6561 C   0  0  0  0  0  0  0  0  0  0  0  0
   15.5115   -7.1850   20.9586 C   0  0  0  0  0  0  0  0  0  0  0  0
   11.9181   -8.3473   22.2254 C   0  0  0  0  0  0  0  0  0  0  0  0
   11.9221   -9.2137   23.0484 O   0  0  0  0  0  0  0  0  0  0  0  0
   10.8777   -7.9324   21.2823 N   0  0  0  0  0  0  0  0  0  0  0  0
    9.3797   -8.4159   21.1025 C   0  0  0  0  0  0  0  0  0  0  0  0
    8.8724   -9.1448   23.1732 C   0  0  0  0  0  0  0  0  0  0  0  0
    7.0642  -10.2491   23.5689 C   0  0  0  0  0  0  0  0  0  0  0  0
    5.0028  -10.0834   22.8821 C   0  0  0  0  0  0  0  0  0  0  0  0
    3.6572  -11.6904   22.6371 N   0  0  0  0  0  0  0  0  0  0  0  0
    2.2212  -12.3797   23.7623 C   0  0  0  0  0  0  0  0  0  0  0  0
    2.0410  -11.7294   24.6777 O   0  0  0  0  0  0  0  0  0  0  0  0
    0.9942  -14.0646   23.9081 C   0  0  0  0  0  0  0  0  0  0  0  0
   -0.7397  -14.3913   24.7865 C   0  0  0  0  0  0  0  0  0  0  0  0
   -1.1928  -14.1841   26.1081 C   0  0  0  0  0  0  0  0  0  0  0  0
   -2.4445  -14.7245   26.3224 N   0  0  0  0  0  0  0  0  0  0  0  0
   -2.8069  -15.2191   25.1650 C   0  0  0  0  0  0  0  0  0  0  0  0
   -1.8706  -14.9746   24.1920 N   0  0  0  0  0  0  0  0  0  0  0  0
    5.1780   -7.8911   22.1808 C   0  0  0  0  0  0  0  0  0  0  0  0
    7.1636   -7.4970   21.2517 C   0  0  0  0  0  0  0  0  0  0  0  0
   12.5614   -4.5978   21.5900 H   0  0  0  0  0  0  0  0  0  0  0  0
   14.3256   -4.7190   21.6356 H   0  0  0  0  0  0  0  0  0  0  0  0
   13.4560   -3.9949   22.9933 H   0  0  0  0  0  0  0  0  0  0  0  0
   12.4561   -6.1347   23.6248 H   0  0  0  0  0  0  0  0  0  0  0  0
   14.1928   -6.3053   23.5680 H   0  0  0  0  0  0  0  0  0  0  0  0
   12.9410   -6.8433   21.0010 H   0  0  0  0  0  0  0  0  0  0  0  0
   14.8970   -8.4601   22.5882 H   0  0  0  0  0  0  0  0  0  0  0  0
   14.2780   -8.9418   21.0250 H   0  0  0  0  0  0  0  0  0  0  0  0
   15.1083   -6.6577   20.0918 H   0  0  0  0  0  0  0  0  0  0  0  0
   15.9186   -6.4432   21.6523 H   0  0  0  0  0  0  0  0  0  0  0  0
   16.3496   -7.8019   20.6180 H   0  0  0  0  0  0  0  0  0  0  0  0
   11.1851   -7.1194   20.7964 H   0  0  0  0  0  0  0  0  0  0  0  0
    9.5030   -8.8056   20.0717 H   0  0  0  0  0  0  0  0  0  0  0  0
    9.7523   -9.6500   23.6252 H   0  0  0  0  0  0  0  0  0  0  0  0
    8.7336   -8.2657   23.8516 H   0  0  0  0  0  0  0  0  0  0  0  0
    7.2649  -11.3313   23.5300 H   0  0  0  0  0  0  0  0  0  0  0  0
    6.9681  -10.0351   24.6506 H   0  0  0  0  0  0  0  0  0  0  0  0
    5.4020  -10.7418   22.0624 H   0  0  0  0  0  0  0  0  0  0  0  0
    3.7090  -12.2697   21.7946 H   0  0  0  0  0  0  0  0  0  0  0  0
    1.0393  -13.8334   25.0582 H   0  0  0  0  0  0  0  0  0  0  0  0
    0.1189  -13.9917   23.1429 H   0  0  0  0  0  0  0  0  0  0  0  0
   -0.6322  -13.7238   26.9125 H   0  0  0  0  0  0  0  0  0  0  0  0
   -3.7299  -15.7440   24.9596 H   0  0  0  0  0  0  0  0  0  0  0  0
   -1.9425  -15.2828   23.2339 H   0  0  0  0  0  0  0  0  0  0  0  0
    5.3156   -7.3181   23.1922 H   0  0  0  0  0  0  0  0  0  0  0  0
    4.5106   -7.0607   22.0130 H   0  0  0  0  0  0  0  0  0  0  0  0
    6.7798   -7.3215   20.1880 H   0  0  0  0  0  0  0  0  0  0  0  0
    7.0321   -6.5191   21.8581 H   0  0  0  0  0  0  0  0  0  0  0  0
  1  2  1  0
  2  3  1  0
  3  4  1  0
  4  5  1  0
  3  6  1  0
  6  7  2  0
  6  8  1  0
  8  9  1  0
  9 10  1  0
 10 11  1  0
 11 12  1  0
 12 13  1  0
 13 14  1  0
 14 15  2  0
 14 16  1  0
 16 17  1  0
 17 18  2  0
 18 19  1  0
 19 20  2  0
 20 21  1  0
 12 22  1  0
 22 23  1  0
 23  9  1  0
 21 17  1  0
  1 24  1  0
  1 25  1  0
  1 26  1  0
  2 27  1  0
  2 28  1  0
  3 29  1  0
  4 30  1  0
  4 31  1  0
  5 32  1  0
  5 33  1  0
  5 34  1  0
  8 35  1  0
  9 36  1  0
 10 37  1  0
 10 38  1  0
 11 39  1  0
 11 40  1  0
 12 41  1  0
 13 42  1  0
 16 43  1  0
 16 44  1  0
 18 45  1  0
 20 46  1  0
 21 47  1  0
 22 48  1  0
 22 49  1  0
 23 50  1  0
 23 51  1  0
M  END
>  <Energy>  (1167) 
1567.5134435777804

>  <compound_id>  (1167) 
23879

>  <target_id>  (1167) 
1

>  <reference_id>  (1167) 
115

>  <inspiration_ids>  (1167) 
[115, 27]

>  <energy_score>  (1167) 
1526.9354136858642

>  <distance_score>  (1167) 
11.422429051352887

>  <path>  (1167) 
/opt/xchem-fragalysis-2/maxwin/BulkDock/SCRATCH/511016/C23879-P115/C23879-P115.minimised.mol

>  <scratch_subdir>  (1167) 
/opt/xchem-fragalysis-2/maxwin/BulkDock/SCRATCH/511016/C23879-P115

>  <fragmenstein_runtime>  (1167) 
31.560803174972534

>  <fragmenstein_outcome>  (1167) 
too moved

>  <fragmenstein_mode>  (1167) 
expansion

>  <fragmenstein_error>  (1167) 


$$$$
C23879-P27
     RDKit          3D

 51 52  0  0  0  0  0  0  0  0999 V2000
   13.4871   -5.4493   22.3513 C   0  0  0  0  0  0  0  0  0  0  0  0
   12.8828   -6.5147   23.2861 C   0  0  0  0  0  0  0  0  0  0  0  0
   12.2183   -7.8364   22.7169 C   0  0  0  0  0  0  0  0  0  0  0  0
   13.2770   -8.9542   22.5864 C   0  0  0  0  0  0  0  0  0  0  0  0
   14.5763   -8.6006   21.8628 C   0  0  0  0  0  0  0  0  0  0  0  0
   11.6036   -7.7251   21.3025 C   0  0  0  0  0  0  0  0  0  0  0  0
   12.2907   -7.0869   20.5526 O   0  0  0  0  0  0  0  0  0  0  0  0
   10.3146   -8.5058   21.0531 N   0  0  0  0  0  0  0  0  0  0  0  0
    9.3649   -8.8878   19.4426 C   0  0  0  0  0  0  0  0  0  0  0  0
    7.9674   -9.1163   18.5708 C   0  0  0  0  0  0  0  0  0  0  0  0
    8.1568  -10.2413   16.9699 C   0  0  0  0  0  0  0  0  0  0  0  0
    6.8580  -11.0624   16.7285 C   0  0  0  0  0  0  0  0  0  0  0  0
    5.5891  -11.4233   16.1276 N   0  0  0  0  0  0  0  0  0  0  0  0
    4.9998  -12.7547   15.8380 C   0  0  0  0  0  0  0  0  0  0  0  0
    5.4652  -13.8589   15.9557 O   0  0  0  0  0  0  0  0  0  0  0  0
    3.4933  -12.7391   15.4086 C   0  0  0  0  0  0  0  0  0  0  0  0
    2.6197  -13.8757   16.0632 C   0  0  0  0  0  0  0  0  0  0  0  0
    2.6759  -14.5403   17.2812 C   0  0  0  0  0  0  0  0  0  0  0  0
    1.5645  -15.3318   17.4872 N   0  0  0  0  0  0  0  0  0  0  0  0
    0.8521  -15.2302   16.3987 C   0  0  0  0  0  0  0  0  0  0  0  0
    1.4519  -14.3815   15.5049 N   0  0  0  0  0  0  0  0  0  0  0  0
    6.4795  -10.7852   18.1723 C   0  0  0  0  0  0  0  0  0  0  0  0
    7.9874  -10.4245   19.2695 C   0  0  0  0  0  0  0  0  0  0  0  0
   12.7277   -4.9387   21.7542 H   0  0  0  0  0  0  0  0  0  0  0  0
   14.2428   -5.8660   21.6824 H   0  0  0  0  0  0  0  0  0  0  0  0
   13.9789   -4.6801   22.9572 H   0  0  0  0  0  0  0  0  0  0  0  0
   12.1369   -6.0042   23.9069 H   0  0  0  0  0  0  0  0  0  0  0  0
   13.6595   -6.8108   24.0041 H   0  0  0  0  0  0  0  0  0  0  0  0
   11.4488   -8.1763   23.4199 H   0  0  0  0  0  0  0  0  0  0  0  0
   13.5424   -9.2904   23.5972 H   0  0  0  0  0  0  0  0  0  0  0  0
   12.8358   -9.8271   22.0890 H   0  0  0  0  0  0  0  0  0  0  0  0
   15.1546   -7.8572   22.4181 H   0  0  0  0  0  0  0  0  0  0  0  0
   15.2033   -9.4971   21.7971 H   0  0  0  0  0  0  0  0  0  0  0  0
   14.4280   -8.2449   20.8468 H   0  0  0  0  0  0  0  0  0  0  0  0
    9.9604   -8.8555   21.9366 H   0  0  0  0  0  0  0  0  0  0  0  0
    9.1247   -7.9206   19.7932 H   0  0  0  0  0  0  0  0  0  0  0  0
    6.9242   -9.0208   18.8838 H   0  0  0  0  0  0  0  0  0  0  0  0
    7.3533   -8.1121   18.5880 H   0  0  0  0  0  0  0  0  0  0  0  0
    9.0259  -10.8764   17.2310 H   0  0  0  0  0  0  0  0  0  0  0  0
    8.5515   -9.8915   16.0012 H   0  0  0  0  0  0  0  0  0  0  0  0
    7.3498  -11.9788   16.3745 H   0  0  0  0  0  0  0  0  0  0  0  0
    4.8824  -10.7102   15.9897 H   0  0  0  0  0  0  0  0  0  0  0  0
    3.4641  -12.8625   14.3200 H   0  0  0  0  0  0  0  0  0  0  0  0
    3.0478  -11.7718   15.6570 H   0  0  0  0  0  0  0  0  0  0  0  0
    3.4504  -14.4554   18.0358 H   0  0  0  0  0  0  0  0  0  0  0  0
   -0.0823  -15.7345   16.1918 H   0  0  0  0  0  0  0  0  0  0  0  0
    1.0853  -14.1496   14.5924 H   0  0  0  0  0  0  0  0  0  0  0  0
    5.9601  -11.6221   18.6603 H   0  0  0  0  0  0  0  0  0  0  0  0
    5.7469   -9.9682   18.1198 H   0  0  0  0  0  0  0  0  0  0  0  0
    7.2671  -10.5389   20.0479 H   0  0  0  0  0  0  0  0  0  0  0  0
    8.5416  -11.3606   19.2634 H   0  0  0  0  0  0  0  0  0  0  0  0
  1  2  1  0
  2  3  1  0
  3  4  1  0
  4  5  1  0
  3  6  1  0
  6  7  2  0
  6  8  1  0
  8  9  1  0
  9 10  1  0
 10 11  1  0
 11 12  1  0
 12 13  1  0
 13 14  1  0
 14 15  2  0
 14 16  1  0
 16 17  1  0
 17 18  2  0
 18 19  1  0
 19 20  2  0
 20 21  1  0
 12 22  1  0
 22 23  1  0
 23  9  1  0
 21 17  1  0
  1 24  1  0
  1 25  1  0
  1 26  1  0
  2 27  1  0
  2 28  1  0
  3 29  1  0
  4 30  1  0
  4 31  1  0
  5 32  1  0
  5 33  1  0
  5 34  1  0
  8 35  1  0
  9 36  1  0
 10 37  1  0
 10 38  1  0
 11 39  1  0
 11 40  1  0
 12 41  1  0
 13 42  1  0
 16 43  1  0
 16 44  1  0
 18 45  1  0
 20 46  1  0
 21 47  1  0
 22 48  1  0
 22 49  1  0
 23 50  1  0
 23 51  1  0
M  END
>  <Energy>  (1168) 
614.99007839221861

>  <compound_id>  (1168) 
23879

>  <target_id>  (1168) 
1

>  <reference_id>  (1168) 
27

>  <inspiration_ids>  (1168) 
[115, 27]

>  <energy_score>  (1168) 
574.4120485002735

>  <distance_score>  (1168) 
14.185997924633305

>  <path>  (1168) 
/opt/xchem-fragalysis-2/maxwin/BulkDock/SCRATCH/511016/C23879-P27/C23879-P27.minimised.mol

>  <scratch_subdir>  (1168) 
/opt/xchem-fragalysis-2/maxwin/BulkDock/SCRATCH/511016/C23879-P27

>  <fragmenstein_runtime>  (1168) 
30.65993022918701

>  <fragmenstein_outcome>  (1168) 
too moved

>  <fragmenstein_mode>  (1168) 
expansion

>  <fragmenstein_error>  (1168) 


$$$$
C23868-P115
     RDKit          3D

 42 43  0  0  0  0  0  0  0  0999 V2000
   15.8136   -3.0573   20.8841 C   0  0  0  0  0  0  0  0  0  0  0  0
   14.3196   -3.0510   21.1699 C   0  0  0  0  0  0  0  0  0  0  0  0
   13.5108   -4.2035   20.5466 C   0  0  0  0  0  0  0  0  0  0  0  0
   13.8802   -4.4598   19.0608 C   0  0  0  0  0  0  0  0  0  0  0  0
   13.6973   -3.3073   18.0813 C   0  0  0  0  0  0  0  0  0  0  0  0
   13.6101   -5.5348   21.3840 C   0  0  0  0  0  0  0  0  0  0  0  0
   14.4907   -6.3007   21.1050 O   0  0  0  0  0  0  0  0  0  0  0  0
   12.5643   -5.6181   22.3980 N   0  0  0  0  0  0  0  0  0  0  0  0
   12.3200   -6.6277   23.4661 C   0  0  0  0  0  0  0  0  0  0  0  0
   11.2220   -6.3301   24.5161 C   0  0  0  0  0  0  0  0  0  0  0  0
   10.2826   -7.3571   23.8444 C   0  0  0  0  0  0  0  0  0  0  0  0
    9.4740   -8.2754   24.7279 N   0  0  0  0  0  0  0  0  0  0  0  0
    9.5704   -9.7072   24.9559 C   0  0  0  0  0  0  0  0  0  0  0  0
   10.3683  -10.5070   24.5597 O   0  0  0  0  0  0  0  0  0  0  0  0
    8.4344  -10.2858   25.7405 C   0  0  0  0  0  0  0  0  0  0  0  0
    7.4290   -9.8063   26.5749 C   0  0  0  0  0  0  0  0  0  0  0  0
    6.6329  -10.8129   27.0965 N   0  0  0  0  0  0  0  0  0  0  0  0
    7.1001  -11.9116   26.5601 C   0  0  0  0  0  0  0  0  0  0  0  0
    8.1697  -11.6600   25.7515 N   0  0  0  0  0  0  0  0  0  0  0  0
   11.5145   -7.8909   23.0702 C   0  0  0  0  0  0  0  0  0  0  0  0
   16.3024   -2.2536   21.4448 H   0  0  0  0  0  0  0  0  0  0  0  0
   16.2687   -4.0035   21.1924 H   0  0  0  0  0  0  0  0  0  0  0  0
   16.0352   -2.8948   19.8262 H   0  0  0  0  0  0  0  0  0  0  0  0
   14.1725   -3.0531   22.2567 H   0  0  0  0  0  0  0  0  0  0  0  0
   13.9302   -2.0965   20.8015 H   0  0  0  0  0  0  0  0  0  0  0  0
   12.4666   -3.9010   20.5865 H   0  0  0  0  0  0  0  0  0  0  0  0
   14.9150   -4.8170   18.9917 H   0  0  0  0  0  0  0  0  0  0  0  0
   13.2656   -5.2813   18.7002 H   0  0  0  0  0  0  0  0  0  0  0  0
   14.0992   -3.5899   17.1022 H   0  0  0  0  0  0  0  0  0  0  0  0
   14.2165   -2.4019   18.4039 H   0  0  0  0  0  0  0  0  0  0  0  0
   12.6432   -3.0750   17.9360 H   0  0  0  0  0  0  0  0  0  0  0  0
   12.0405   -4.7466   22.4066 H   0  0  0  0  0  0  0  0  0  0  0  0
   13.2804   -6.8758   23.9360 H   0  0  0  0  0  0  0  0  0  0  0  0
   10.8447   -5.3029   24.5311 H   0  0  0  0  0  0  0  0  0  0  0  0
   11.5187   -6.6011   25.5365 H   0  0  0  0  0  0  0  0  0  0  0  0
    9.5873   -6.8384   23.1701 H   0  0  0  0  0  0  0  0  0  0  0  0
    8.7168   -7.9021   25.2873 H   0  0  0  0  0  0  0  0  0  0  0  0
    7.2459   -8.7774   26.8560 H   0  0  0  0  0  0  0  0  0  0  0  0
    6.7168  -12.9015   26.7093 H   0  0  0  0  0  0  0  0  0  0  0  0
    8.7204  -12.3417   25.2430 H   0  0  0  0  0  0  0  0  0  0  0  0
   11.9554   -8.8094   23.4705 H   0  0  0  0  0  0  0  0  0  0  0  0
   11.3529   -8.0250   21.9967 H   0  0  0  0  0  0  0  0  0  0  0  0
  1  2  1  0
  2  3  1  0
  3  4  1  0
  4  5  1  0
  3  6  1  0
  6  7  2  0
  6  8  1  0
  8  9  1  0
  9 10  1  0
 10 11  1  0
 11 12  1  0
 12 13  1  0
 13 14  2  0
 13 15  1  0
 15 16  2  0
 16 17  1  0
 17 18  2  0
 18 19  1  0
 11 20  1  0
 20  9  1  0
 19 15  1  0
  1 21  1  0
  1 22  1  0
  1 23  1  0
  2 24  1  0
  2 25  1  0
  3 26  1  0
  4 27  1  0
  4 28  1  0
  5 29  1  0
  5 30  1  0
  5 31  1  0
  8 32  1  0
  9 33  1  0
 10 34  1  0
 10 35  1  0
 11 36  1  0
 12 37  1  0
 16 38  1  0
 18 39  1  0
 19 40  1  0
 20 41  1  0
 20 42  1  0
M  END
>  <Energy>  (1169) 
-14.262373894491713

>  <compound_id>  (1169) 
23868

>  <target_id>  (1169) 
1

>  <reference_id>  (1169) 
115

>  <inspiration_ids>  (1169) 
[115, 27]

>  <energy_score>  (1169) 
-2.39132573132531

>  <distance_score>  (1169) 
14.437406854507014

>  <path>  (1169) 
/opt/xchem-fragalysis-2/maxwin/BulkDock/SCRATCH/511016/C23868-P115/C23868-P115.minimised.mol

>  <scratch_subdir>  (1169) 
/opt/xchem-fragalysis-2/maxwin/BulkDock/SCRATCH/511016/C23868-P115

>  <fragmenstein_runtime>  (1169) 
31.241191625595093

>  <fragmenstein_outcome>  (1169) 
too moved

>  <fragmenstein_mode>  (1169) 
expansion

>  <fragmenstein_error>  (1169) 


$$$$
C23868-P27
     RDKit          3D

 42 43  0  0  0  0  0  0  0  0999 V2000
    6.5644   -8.2015   12.1255 C   0  0  0  0  0  0  0  0  0  0  0  0
    5.1896   -7.6218   11.8058 C   0  0  0  0  0  0  0  0  0  0  0  0
    3.9382   -8.0740   12.6136 C   0  0  0  0  0  0  0  0  0  0  0  0
    3.7557   -7.2611   13.9200 C   0  0  0  0  0  0  0  0  0  0  0  0
    4.6657   -7.6105   15.0867 C   0  0  0  0  0  0  0  0  0  0  0  0
    3.8175   -9.6027   12.8375 C   0  0  0  0  0  0  0  0  0  0  0  0
    4.8267  -10.2447   12.8719 O   0  0  0  0  0  0  0  0  0  0  0  0
    2.4402   -9.9945   13.0678 N   0  0  0  0  0  0  0  0  0  0  0  0
    1.8729  -11.2588   13.5039 C   0  0  0  0  0  0  0  0  0  0  0  0
    0.4511  -11.8221   13.2207 C   0  0  0  0  0  0  0  0  0  0  0  0
    0.6565  -12.5584   14.6030 C   0  0  0  0  0  0  0  0  0  0  0  0
   -0.4496  -13.1247   15.4510 N   0  0  0  0  0  0  0  0  0  0  0  0
   -0.6171  -14.4575   16.0425 C   0  0  0  0  0  0  0  0  0  0  0  0
    0.0471  -15.4476   15.9300 O   0  0  0  0  0  0  0  0  0  0  0  0
   -1.7193  -14.6397   17.0324 C   0  0  0  0  0  0  0  0  0  0  0  0
   -2.7749  -13.9140   17.5619 C   0  0  0  0  0  0  0  0  0  0  0  0
   -3.4553  -14.6053   18.5575 N   0  0  0  0  0  0  0  0  0  0  0  0
   -2.8626  -15.7719   18.6387 C   0  0  0  0  0  0  0  0  0  0  0  0
   -1.8359  -15.8495   17.7429 N   0  0  0  0  0  0  0  0  0  0  0  0
    1.3633  -11.1917   14.9596 C   0  0  0  0  0  0  0  0  0  0  0  0
    6.6615   -9.2030   11.6922 H   0  0  0  0  0  0  0  0  0  0  0  0
    6.7727   -8.2938   13.1886 H   0  0  0  0  0  0  0  0  0  0  0  0
    7.3453   -7.6079   11.6489 H   0  0  0  0  0  0  0  0  0  0  0  0
    4.9954   -7.8720   10.7531 H   0  0  0  0  0  0  0  0  0  0  0  0
    5.2169   -6.5314   11.8294 H   0  0  0  0  0  0  0  0  0  0  0  0
    3.0877   -7.7963   11.9721 H   0  0  0  0  0  0  0  0  0  0  0  0
    3.8263   -6.1928   13.6928 H   0  0  0  0  0  0  0  0  0  0  0  0
    2.7245   -7.4052   14.2695 H   0  0  0  0  0  0  0  0  0  0  0  0
    4.4081   -8.5982   15.4790 H   0  0  0  0  0  0  0  0  0  0  0  0
    4.5265   -6.8909   15.9001 H   0  0  0  0  0  0  0  0  0  0  0  0
    5.7162   -7.6210   14.8232 H   0  0  0  0  0  0  0  0  0  0  0  0
    1.8522   -9.1697   13.0358 H   0  0  0  0  0  0  0  0  0  0  0  0
    2.6452  -12.0304   13.3512 H   0  0  0  0  0  0  0  0  0  0  0  0
   -0.3624  -11.0879   13.1877 H   0  0  0  0  0  0  0  0  0  0  0  0
    0.3747  -12.4807   12.3515 H   0  0  0  0  0  0  0  0  0  0  0  0
    1.3771  -13.3840   14.4861 H   0  0  0  0  0  0  0  0  0  0  0  0
   -1.1535  -12.5047   15.8289 H   0  0  0  0  0  0  0  0  0  0  0  0
   -3.0833  -12.9106   17.2993 H   0  0  0  0  0  0  0  0  0  0  0  0
   -3.1212  -16.5828   19.3068 H   0  0  0  0  0  0  0  0  0  0  0  0
   -1.2081  -16.6321   17.6054 H   0  0  0  0  0  0  0  0  0  0  0  0
    0.6738  -10.3616   15.1733 H   0  0  0  0  0  0  0  0  0  0  0  0
    2.1918  -11.1044   15.6524 H   0  0  0  0  0  0  0  0  0  0  0  0
  1  2  1  0
  2  3  1  0
  3  4  1  0
  4  5  1  0
  3  6  1  0
  6  7  2  0
  6  8  1  0
  8  9  1  0
  9 10  1  0
 10 11  1  0
 11 12  1  0
 12 13  1  0
 13 14  2  0
 13 15  1  0
 15 16  2  0
 16 17  1  0
 17 18  2  0
 18 19  1  0
 11 20  1  0
 20  9  1  0
 19 15  1  0
  1 21  1  0
  1 22  1  0
  1 23  1  0
  2 24  1  0
  2 25  1  0
  3 26  1  0
  4 27  1  0
  4 28  1  0
  5 29  1  0
  5 30  1  0
  5 31  1  0
  8 32  1  0
  9 33  1  0
 10 34  1  0
 10 35  1  0
 11 36  1  0
 12 37  1  0
 16 38  1  0
 18 39  1  0
 19 40  1  0
 20 41  1  0
 20 42  1  0
M  END
>  <Energy>  (1170) 
4.0308821791456095

>  <compound_id>  (1170) 
23868

>  <target_id>  (1170) 
1

>  <reference_id>  (1170) 
27

>  <inspiration_ids>  (1170) 
[115, 27]

>  <energy_score>  (1170) 
15.901930342311573

>  <distance_score>  (1170) 
15.769698004974597

>  <path>  (1170) 
/opt/xchem-fragalysis-2/maxwin/BulkDock/SCRATCH/511016/C23868-P27/C23868-P27.minimised.mol

>  <scratch_subdir>  (1170) 
/opt/xchem-fragalysis-2/maxwin/BulkDock/SCRATCH/511016/C23868-P27

>  <fragmenstein_runtime>  (1170) 
25.44159770011902

>  <fragmenstein_outcome>  (1170) 
too moved

>  <fragmenstein_mode>  (1170) 
expansion

>  <fragmenstein_error>  (1170) 


$$$$
C44137-P115
     RDKit          3D

 51 52  0  0  0  0  0  0  0  0999 V2000
   11.6529   -8.1367   22.5053 C   0  0  0  0  0  0  0  0  0  0  0  0
   11.6448   -8.5580   23.9818 C   0  0  0  0  0  0  0  0  0  0  0  0
   10.3206   -9.2153   24.5587 C   0  0  0  0  0  0  0  0  0  0  0  0
    9.1026   -8.4102   24.0734 C   0  0  0  0  0  0  0  0  0  0  0  0
    9.0839   -6.9517   24.5167 C   0  0  0  0  0  0  0  0  0  0  0  0
   10.2899  -10.8165   24.3397 C   0  0  0  0  0  0  0  0  0  0  0  0
   11.0681  -11.2316   23.5225 O   0  0  0  0  0  0  0  0  0  0  0  0
    9.3778  -11.5379   25.2482 N   0  0  0  0  0  0  0  0  0  0  0  0
    9.2057  -13.0472   25.5148 C   0  0  0  0  0  0  0  0  0  0  0  0
    9.2159  -13.9051   24.2963 C   0  0  0  0  0  0  0  0  0  0  0  0
    8.2612  -15.5399   24.7708 C   0  0  0  0  0  0  0  0  0  0  0  0
    6.8098  -16.8716   23.7408 C   0  0  0  0  0  0  0  0  0  0  0  0
    7.5794  -18.7819   24.2946 N   0  0  0  0  0  0  0  0  0  0  0  0
    6.5446  -20.3664   25.3664 C   0  0  0  0  0  0  0  0  0  0  0  0
    5.3468  -20.4252   25.7311 O   0  0  0  0  0  0  0  0  0  0  0  0
    7.4365  -22.1145   25.7482 C   0  0  0  0  0  0  0  0  0  0  0  0
    6.3997  -23.3420   25.6333 C   0  0  0  0  0  0  0  0  0  0  0  0
    4.9748  -23.4947   26.2179 C   0  0  0  0  0  0  0  0  0  0  0  0
    3.9402  -24.0499   25.5918 N   0  0  0  0  0  0  0  0  0  0  0  0
    2.9811  -24.3179   26.5413 C   0  0  0  0  0  0  0  0  0  0  0  0
    3.3931  -23.8742   27.7698 C   0  0  0  0  0  0  0  0  0  0  0  0
    4.6466  -23.3593   27.5488 N   0  0  0  0  0  0  0  0  0  0  0  0
    7.9339  -13.7930   25.8460 C   0  0  0  0  0  0  0  0  0  0  0  0
   11.3745   -8.9790   21.8658 H   0  0  0  0  0  0  0  0  0  0  0  0
   12.6573   -7.8086   22.2190 H   0  0  0  0  0  0  0  0  0  0  0  0
   10.9691   -7.3096   22.3063 H   0  0  0  0  0  0  0  0  0  0  0  0
   11.8769   -7.6707   24.5845 H   0  0  0  0  0  0  0  0  0  0  0  0
   12.4806   -9.2490   24.1484 H   0  0  0  0  0  0  0  0  0  0  0  0
   10.3862   -9.1077   25.6515 H   0  0  0  0  0  0  0  0  0  0  0  0
    8.1929   -8.8963   24.4400 H   0  0  0  0  0  0  0  0  0  0  0  0
    9.0579   -8.4049   22.9869 H   0  0  0  0  0  0  0  0  0  0  0  0
    9.9827   -6.4128   24.2166 H   0  0  0  0  0  0  0  0  0  0  0  0
    8.2133   -6.4410   24.0937 H   0  0  0  0  0  0  0  0  0  0  0  0
    9.0099   -6.8894   25.6075 H   0  0  0  0  0  0  0  0  0  0  0  0
    8.8030  -10.8641   25.7461 H   0  0  0  0  0  0  0  0  0  0  0  0
    9.9534  -13.1444   26.2890 H   0  0  0  0  0  0  0  0  0  0  0  0
   10.2352  -13.9210   23.9114 H   0  0  0  0  0  0  0  0  0  0  0  0
    8.6128  -13.2536   23.6962 H   0  0  0  0  0  0  0  0  0  0  0  0
    8.4706  -15.6268   23.6688 H   0  0  0  0  0  0  0  0  0  0  0  0
    6.3324  -16.5626   24.6842 H   0  0  0  0  0  0  0  0  0  0  0  0
    5.7264  -16.6079   23.8428 H   0  0  0  0  0  0  0  0  0  0  0  0
    8.5215  -18.9282   24.2144 H   0  0  0  0  0  0  0  0  0  0  0  0
    8.1632  -22.1091   26.5854 H   0  0  0  0  0  0  0  0  0  0  0  0
    8.2081  -22.5159   25.0714 H   0  0  0  0  0  0  0  0  0  0  0  0
    6.9492  -24.2251   25.9909 H   0  0  0  0  0  0  0  0  0  0  0  0
    6.2719  -23.5053   24.5544 H   0  0  0  0  0  0  0  0  0  0  0  0
    2.0558  -24.8117   26.2766 H   0  0  0  0  0  0  0  0  0  0  0  0
    2.9433  -23.8980   28.7508 H   0  0  0  0  0  0  0  0  0  0  0  0
    5.2822  -22.9796   28.2318 H   0  0  0  0  0  0  0  0  0  0  0  0
    7.8603  -13.8510   26.9340 H   0  0  0  0  0  0  0  0  0  0  0  0
    7.1157  -13.0608   25.6495 H   0  0  0  0  0  0  0  0  0  0  0  0
  1  2  1  0
  2  3  1  0
  3  4  1  0
  4  5  1  0
  3  6  1  0
  6  7  2  0
  6  8  1  0
  8  9  1  0
  9 10  1  0
 10 11  1  0
 11 12  1  0
 12 13  1  0
 13 14  1  0
 14 15  2  0
 14 16  1  0
 16 17  1  0
 17 18  1  0
 18 19  2  0
 19 20  1  0
 20 21  2  0
 21 22  1  0
 11 23  1  0
 23  9  1  0
 22 18  1  0
  1 24  1  0
  1 25  1  0
  1 26  1  0
  2 27  1  0
  2 28  1  0
  3 29  1  0
  4 30  1  0
  4 31  1  0
  5 32  1  0
  5 33  1  0
  5 34  1  0
  8 35  1  0
  9 36  1  0
 10 37  1  0
 10 38  1  0
 11 39  1  0
 12 40  1  0
 12 41  1  0
 13 42  1  0
 16 43  1  0
 16 44  1  0
 17 45  1  0
 17 46  1  0
 20 47  1  0
 21 48  1  0
 22 49  1  0
 23 50  1  0
 23 51  1  0
M  END
>  <Energy>  (1171) 
814.55556487208992

>  <compound_id>  (1171) 
44137

>  <target_id>  (1171) 
1

>  <reference_id>  (1171) 
115

>  <inspiration_ids>  (1171) 
[115, 27]

>  <energy_score>  (1171) 
792.1000183884449

>  <distance_score>  (1171) 
13.127080258771398

>  <path>  (1171) 
/opt/xchem-fragalysis-2/maxwin/BulkDock/SCRATCH/511016/C44137-P115/C44137-P115.minimised.mol

>  <scratch_subdir>  (1171) 
/opt/xchem-fragalysis-2/maxwin/BulkDock/SCRATCH/511016/C44137-P115

>  <fragmenstein_runtime>  (1171) 
49.72737264633179

>  <fragmenstein_outcome>  (1171) 
too moved

>  <fragmenstein_mode>  (1171) 
expansion

>  <fragmenstein_error>  (1171) 


$$$$
C44137-P27
     RDKit          3D

 51 52  0  0  0  0  0  0  0  0999 V2000
   12.9861   -4.6467   16.8835 C   0  0  0  0  0  0  0  0  0  0  0  0
   11.5161   -5.0731   16.7328 C   0  0  0  0  0  0  0  0  0  0  0  0
   10.9780   -6.4442   15.5450 C   0  0  0  0  0  0  0  0  0  0  0  0
   10.8422   -4.6719   14.5734 C   0  0  0  0  0  0  0  0  0  0  0  0
   10.2363   -3.2461   14.8531 C   0  0  0  0  0  0  0  0  0  0  0  0
    9.5901   -7.9966   15.1775 C   0  0  0  0  0  0  0  0  0  0  0  0
   10.0025   -9.1308   15.4000 O   0  0  0  0  0  0  0  0  0  0  0  0
    8.3612   -7.5686   14.6233 N   0  0  0  0  0  0  0  0  0  0  0  0
    7.0747   -8.4219   14.0535 C   0  0  0  0  0  0  0  0  0  0  0  0
    5.7281   -8.5359   14.8779 C   0  0  0  0  0  0  0  0  0  0  0  0
    5.6736  -10.1080   14.6564 C   0  0  0  0  0  0  0  0  0  0  0  0
    5.4424  -11.1718   15.7873 C   0  0  0  0  0  0  0  0  0  0  0  0
    4.0871  -11.7822   16.0285 N   0  0  0  0  0  0  0  0  0  0  0  0
    3.6138  -13.1770   15.8814 C   0  0  0  0  0  0  0  0  0  0  0  0
    4.1742  -14.1510   15.4549 O   0  0  0  0  0  0  0  0  0  0  0  0
    2.1361  -13.4329   16.5001 C   0  0  0  0  0  0  0  0  0  0  0  0
    1.6609  -14.9475   16.3935 C   0  0  0  0  0  0  0  0  0  0  0  0
    0.4486  -15.5407   17.1914 C   0  0  0  0  0  0  0  0  0  0  0  0
    0.4356  -16.7170   17.8158 N   0  0  0  0  0  0  0  0  0  0  0  0
   -0.8177  -16.8981   18.3603 C   0  0  0  0  0  0  0  0  0  0  0  0
   -1.6304  -15.8562   18.0008 C   0  0  0  0  0  0  0  0  0  0  0  0
   -0.8314  -15.0196   17.2494 N   0  0  0  0  0  0  0  0  0  0  0  0
    7.2061   -9.9714   14.2917 C   0  0  0  0  0  0  0  0  0  0  0  0
   13.6553   -5.1560   16.2033 H   0  0  0  0  0  0  0  0  0  0  0  0
   13.3313   -4.8269   17.9066 H   0  0  0  0  0  0  0  0  0  0  0  0
   13.0940   -3.5712   16.7011 H   0  0  0  0  0  0  0  0  0  0  0  0
   11.0400   -5.0912   17.6972 H   0  0  0  0  0  0  0  0  0  0  0  0
   11.0365   -4.1440   16.5518 H   0  0  0  0  0  0  0  0  0  0  0  0
   11.9410   -6.9462   15.8025 H   0  0  0  0  0  0  0  0  0  0  0  0
   11.8571   -4.2113   14.6893 H   0  0  0  0  0  0  0  0  0  0  0  0
   10.9171   -4.8217   13.4956 H   0  0  0  0  0  0  0  0  0  0  0  0
   10.6162   -2.6750   15.7078 H   0  0  0  0  0  0  0  0  0  0  0  0
   10.6464   -2.6173   14.0603 H   0  0  0  0  0  0  0  0  0  0  0  0
    9.1488   -3.1748   14.8235 H   0  0  0  0  0  0  0  0  0  0  0  0
    8.3272   -6.5724   14.6657 H   0  0  0  0  0  0  0  0  0  0  0  0
    6.9343   -8.2003   12.9868 H   0  0  0  0  0  0  0  0  0  0  0  0
    4.8918   -8.0045   14.4079 H   0  0  0  0  0  0  0  0  0  0  0  0
    5.7163   -8.2495   15.9302 H   0  0  0  0  0  0  0  0  0  0  0  0
    5.0828  -10.3753   13.7691 H   0  0  0  0  0  0  0  0  0  0  0  0
    5.7525  -10.7474   16.7484 H   0  0  0  0  0  0  0  0  0  0  0  0
    6.0949  -12.0292   15.5838 H   0  0  0  0  0  0  0  0  0  0  0  0
    3.3201  -11.2036   16.3485 H   0  0  0  0  0  0  0  0  0  0  0  0
    1.4258  -12.7851   15.9766 H   0  0  0  0  0  0  0  0  0  0  0  0
    2.1720  -13.1410   17.5552 H   0  0  0  0  0  0  0  0  0  0  0  0
    1.4684  -15.1600   15.3336 H   0  0  0  0  0  0  0  0  0  0  0  0
    2.5153  -15.5782   16.6750 H   0  0  0  0  0  0  0  0  0  0  0  0
   -1.0513  -17.7630   18.9672 H   0  0  0  0  0  0  0  0  0  0  0  0
   -2.6640  -15.6273   18.2134 H   0  0  0  0  0  0  0  0  0  0  0  0
   -1.1230  -14.1520   16.8255 H   0  0  0  0  0  0  0  0  0  0  0  0
    7.5091  -10.5395   13.4055 H   0  0  0  0  0  0  0  0  0  0  0  0
    7.8591  -10.2791   15.1131 H   0  0  0  0  0  0  0  0  0  0  0  0
  1  2  1  0
  2  3  1  0
  3  4  1  0
  4  5  1  0
  3  6  1  0
  6  7  2  0
  6  8  1  0
  8  9  1  0
  9 10  1  0
 10 11  1  0
 11 12  1  0
 12 13  1  0
 13 14  1  0
 14 15  2  0
 14 16  1  0
 16 17  1  0
 17 18  1  0
 18 19  2  0
 19 20  1  0
 20 21  2  0
 21 22  1  0
 11 23  1  0
 23  9  1  0
 22 18  1  0
  1 24  1  0
  1 25  1  0
  1 26  1  0
  2 27  1  0
  2 28  1  0
  3 29  1  0
  4 30  1  0
  4 31  1  0
  5 32  1  0
  5 33  1  0
  5 34  1  0
  8 35  1  0
  9 36  1  0
 10 37  1  0
 10 38  1  0
 11 39  1  0
 12 40  1  0
 12 41  1  0
 13 42  1  0
 16 43  1  0
 16 44  1  0
 17 45  1  0
 17 46  1  0
 20 47  1  0
 21 48  1  0
 22 49  1  0
 23 50  1  0
 23 51  1  0
M  END
>  <Energy>  (1172) 
307.72885744268166

>  <compound_id>  (1172) 
44137

>  <target_id>  (1172) 
1

>  <reference_id>  (1172) 
27

>  <inspiration_ids>  (1172) 
[115, 27]

>  <energy_score>  (1172) 
285.2733109590331

>  <distance_score>  (1172) 
12.704990316422155

>  <path>  (1172) 
/opt/xchem-fragalysis-2/maxwin/BulkDock/SCRATCH/511016/C44137-P27/C44137-P27.minimised.mol

>  <scratch_subdir>  (1172) 
/opt/xchem-fragalysis-2/maxwin/BulkDock/SCRATCH/511016/C44137-P27

>  <fragmenstein_runtime>  (1172) 
52.17177605628967

>  <fragmenstein_outcome>  (1172) 
too moved

>  <fragmenstein_mode>  (1172) 
expansion

>  <fragmenstein_error>  (1172) 


$$$$
C73143-P115
     RDKit          3D

 54 55  0  0  0  0  0  0  0  0999 V2000
   11.5925   -6.8558   22.7483 C   0  0  0  0  0  0  0  0  0  0  0  0
   11.1080   -6.8048   21.2532 C   0  0  0  0  0  0  0  0  0  0  0  0
    9.8975   -5.4135   20.5216 C   0  0  0  0  0  0  0  0  0  0  0  0
   11.7392   -4.6316   20.7546 C   0  0  0  0  0  0  0  0  0  0  0  0
   12.8539   -4.6802   19.6581 C   0  0  0  0  0  0  0  0  0  0  0  0
    8.0427   -5.0117   21.6802 C   0  0  0  0  0  0  0  0  0  0  0  0
    7.8161   -3.7691   21.9116 O   0  0  0  0  0  0  0  0  0  0  0  0
    7.0387   -6.4725   22.3627 N   0  0  0  0  0  0  0  0  0  0  0  0
    5.6824   -6.5462   23.5358 C   0  0  0  0  0  0  0  0  0  0  0  0
    4.4932   -7.0550   24.3427 C   0  0  0  0  0  0  0  0  0  0  0  0
    2.9235   -7.5159   23.8174 C   0  0  0  0  0  0  0  0  0  0  0  0
    0.9077   -7.4496   23.7206 N   0  0  0  0  0  0  0  0  0  0  0  0
    1.1715   -5.8366   23.7565 C   0  0  0  0  0  0  0  0  0  0  0  0
   -0.0302   -7.7852   22.5923 C   0  0  0  0  0  0  0  0  0  0  0  0
    0.2011   -8.0845   21.4432 O   0  0  0  0  0  0  0  0  0  0  0  0
   -1.6691   -7.5713   23.0903 C   0  0  0  0  0  0  0  0  0  0  0  0
   -1.8343   -6.9900   24.5278 C   0  0  0  0  0  0  0  0  0  0  0  0
   -2.1798   -6.4649   22.1226 C   0  0  0  0  0  0  0  0  0  0  0  0
   -2.7388   -8.7876   22.9900 C   0  0  0  0  0  0  0  0  0  0  0  0
   -3.4536   -9.3079   21.9197 C   0  0  0  0  0  0  0  0  0  0  0  0
   -4.4666  -10.0950   22.4388 N   0  0  0  0  0  0  0  0  0  0  0  0
   -4.3658  -10.0625   23.7987 C   0  0  0  0  0  0  0  0  0  0  0  0
   -3.3057   -9.3648   24.1559 N   0  0  0  0  0  0  0  0  0  0  0  0
    4.4773   -7.8900   23.0337 C   0  0  0  0  0  0  0  0  0  0  0  0
   10.9355   -7.4809   23.3601 H   0  0  0  0  0  0  0  0  0  0  0  0
   12.5751   -7.3420   22.7824 H   0  0  0  0  0  0  0  0  0  0  0  0
   11.6869   -5.8965   23.2615 H   0  0  0  0  0  0  0  0  0  0  0  0
   12.0638   -6.7614   20.7320 H   0  0  0  0  0  0  0  0  0  0  0  0
   10.7278   -7.8143   21.0279 H   0  0  0  0  0  0  0  0  0  0  0  0
    9.8278   -5.6978   19.4943 H   0  0  0  0  0  0  0  0  0  0  0  0
   11.6242   -3.5924   21.0372 H   0  0  0  0  0  0  0  0  0  0  0  0
   12.2631   -4.9461   21.6653 H   0  0  0  0  0  0  0  0  0  0  0  0
   13.5303   -5.5191   19.8243 H   0  0  0  0  0  0  0  0  0  0  0  0
   12.5134   -4.6928   18.6232 H   0  0  0  0  0  0  0  0  0  0  0  0
   13.4772   -3.7834   19.7667 H   0  0  0  0  0  0  0  0  0  0  0  0
    7.3584   -7.2937   21.9765 H   0  0  0  0  0  0  0  0  0  0  0  0
    6.4586   -7.0272   24.1530 H   0  0  0  0  0  0  0  0  0  0  0  0
    4.9618   -7.8499   25.0082 H   0  0  0  0  0  0  0  0  0  0  0  0
    4.2605   -6.0576   24.6336 H   0  0  0  0  0  0  0  0  0  0  0  0
    2.6568   -8.3479   23.1083 H   0  0  0  0  0  0  0  0  0  0  0  0
    1.5817   -5.3508   24.6446 H   0  0  0  0  0  0  0  0  0  0  0  0
    1.2036   -5.3478   22.7720 H   0  0  0  0  0  0  0  0  0  0  0  0
    0.1488   -5.5024   23.9528 H   0  0  0  0  0  0  0  0  0  0  0  0
   -2.8776   -7.0351   24.8645 H   0  0  0  0  0  0  0  0  0  0  0  0
   -1.5841   -5.9302   24.5943 H   0  0  0  0  0  0  0  0  0  0  0  0
   -1.2329   -7.5296   25.2642 H   0  0  0  0  0  0  0  0  0  0  0  0
   -1.5495   -5.5702   22.1745 H   0  0  0  0  0  0  0  0  0  0  0  0
   -2.1620   -6.8086   21.0820 H   0  0  0  0  0  0  0  0  0  0  0  0
   -3.2088   -6.1680   22.3570 H   0  0  0  0  0  0  0  0  0  0  0  0
   -3.3844   -9.1224   20.8561 H   0  0  0  0  0  0  0  0  0  0  0  0
   -5.1872  -10.5628   21.9049 H   0  0  0  0  0  0  0  0  0  0  0  0
   -5.0537  -10.5739   24.4597 H   0  0  0  0  0  0  0  0  0  0  0  0
    4.8612   -7.9357   22.0913 H   0  0  0  0  0  0  0  0  0  0  0  0
    4.5492   -8.9877   23.2006 H   0  0  0  0  0  0  0  0  0  0  0  0
  1  2  1  0
  2  3  1  0
  3  4  1  0
  4  5  1  0
  3  6  1  0
  6  7  2  0
  6  8  1  0
  8  9  1  0
  9 10  1  0
 10 11  1  0
 11 12  1  0
 12 13  1  0
 12 14  1  0
 14 15  2  0
 14 16  1  0
 16 17  1  0
 16 18  1  0
 16 19  1  0
 19 20  2  0
 20 21  1  0
 21 22  1  0
 22 23  2  0
 11 24  1  0
 24  9  1  0
 23 19  1  0
  1 25  1  0
  1 26  1  0
  1 27  1  0
  2 28  1  0
  2 29  1  0
  3 30  1  0
  4 31  1  0
  4 32  1  0
  5 33  1  0
  5 34  1  0
  5 35  1  0
  8 36  1  0
  9 37  1  0
 10 38  1  0
 10 39  1  0
 11 40  1  0
 13 41  1  0
 13 42  1  0
 13 43  1  0
 17 44  1  0
 17 45  1  0
 17 46  1  0
 18 47  1  0
 18 48  1  0
 18 49  1  0
 20 50  1  0
 21 51  1  0
 22 52  1  0
 24 53  1  0
 24 54  1  0
M  END
>  <Energy>  (1173) 
942.30356938655893

>  <compound_id>  (1173) 
73143

>  <target_id>  (1173) 
1

>  <reference_id>  (1173) 
115

>  <inspiration_ids>  (1173) 
[115, 27]

>  <energy_score>  (1173) 
864.5901780338153

>  <distance_score>  (1173) 
13.712915080499798

>  <path>  (1173) 
/opt/xchem-fragalysis-2/maxwin/BulkDock/SCRATCH/511016/C73143-P115/C73143-P115.minimised.mol

>  <scratch_subdir>  (1173) 
/opt/xchem-fragalysis-2/maxwin/BulkDock/SCRATCH/511016/C73143-P115

>  <fragmenstein_runtime>  (1173) 
42.71004390716553

>  <fragmenstein_outcome>  (1173) 
too moved

>  <fragmenstein_mode>  (1173) 
expansion

>  <fragmenstein_error>  (1173) 


$$$$
C73143-P27
     RDKit          3D

 54 55  0  0  0  0  0  0  0  0999 V2000
    3.6116   -2.5544   19.2678 C   0  0  0  0  0  0  0  0  0  0  0  0
    2.3410   -3.3825   19.0760 C   0  0  0  0  0  0  0  0  0  0  0  0
    2.4598   -4.8157   18.4751 C   0  0  0  0  0  0  0  0  0  0  0  0
    3.1137   -4.7790   17.0620 C   0  0  0  0  0  0  0  0  0  0  0  0
    4.0559   -5.9566   16.8228 C   0  0  0  0  0  0  0  0  0  0  0  0
    1.0087   -5.4713   18.4539 C   0  0  0  0  0  0  0  0  0  0  0  0
    0.3626   -5.3750   17.4480 O   0  0  0  0  0  0  0  0  0  0  0  0
    0.6603   -6.0246   19.7564 N   0  0  0  0  0  0  0  0  0  0  0  0
   -0.6230   -6.5479   20.2750 C   0  0  0  0  0  0  0  0  0  0  0  0
   -1.3765   -7.7351   19.6003 C   0  0  0  0  0  0  0  0  0  0  0  0
   -2.0893   -7.9134   21.0332 C   0  0  0  0  0  0  0  0  0  0  0  0
   -2.7116   -9.4515   21.3445 N   0  0  0  0  0  0  0  0  0  0  0  0
   -2.9356   -8.8314   22.7289 C   0  0  0  0  0  0  0  0  0  0  0  0
   -3.9397  -10.0988   20.8748 C   0  0  0  0  0  0  0  0  0  0  0  0
   -4.8555   -9.6572   20.2181 O   0  0  0  0  0  0  0  0  0  0  0  0
   -4.0110  -11.6864   21.2078 C   0  0  0  0  0  0  0  0  0  0  0  0
   -2.6335  -12.2806   20.9094 C   0  0  0  0  0  0  0  0  0  0  0  0
   -4.9523  -12.3130   20.1252 C   0  0  0  0  0  0  0  0  0  0  0  0
   -4.5543  -12.1994   22.5866 C   0  0  0  0  0  0  0  0  0  0  0  0
   -5.8448  -12.1923   23.1007 C   0  0  0  0  0  0  0  0  0  0  0  0
   -5.8561  -13.0619   24.1676 N   0  0  0  0  0  0  0  0  0  0  0  0
   -4.5942  -13.5583   24.3017 C   0  0  0  0  0  0  0  0  0  0  0  0
   -3.7902  -13.0516   23.3906 N   0  0  0  0  0  0  0  0  0  0  0  0
   -0.6144   -7.4843   21.5269 C   0  0  0  0  0  0  0  0  0  0  0  0
    3.3778   -1.6664   19.8658 H   0  0  0  0  0  0  0  0  0  0  0  0
    4.3707   -3.1186   19.8098 H   0  0  0  0  0  0  0  0  0  0  0  0
    4.0011   -2.1916   18.3160 H   0  0  0  0  0  0  0  0  0  0  0  0
    1.6419   -2.8002   18.4613 H   0  0  0  0  0  0  0  0  0  0  0  0
    1.8592   -3.4696   20.0589 H   0  0  0  0  0  0  0  0  0  0  0  0
    3.0916   -5.4082   19.1345 H   0  0  0  0  0  0  0  0  0  0  0  0
    3.6606   -3.8506   16.8994 H   0  0  0  0  0  0  0  0  0  0  0  0
    2.3493   -4.7943   16.2773 H   0  0  0  0  0  0  0  0  0  0  0  0
    4.5240   -5.8753   15.8389 H   0  0  0  0  0  0  0  0  0  0  0  0
    4.8441   -6.0075   17.5785 H   0  0  0  0  0  0  0  0  0  0  0  0
    3.5016   -6.9004   16.8545 H   0  0  0  0  0  0  0  0  0  0  0  0
    1.4285   -5.8640   20.4008 H   0  0  0  0  0  0  0  0  0  0  0  0
   -1.2811   -5.6769   20.4212 H   0  0  0  0  0  0  0  0  0  0  0  0
   -2.0496   -7.4588   18.7843 H   0  0  0  0  0  0  0  0  0  0  0  0
   -0.7482   -8.5721   19.2788 H   0  0  0  0  0  0  0  0  0  0  0  0
   -2.8857   -7.1562   21.1421 H   0  0  0  0  0  0  0  0  0  0  0  0
   -3.1896   -9.6737   23.3838 H   0  0  0  0  0  0  0  0  0  0  0  0
   -2.0909   -8.3314   23.1966 H   0  0  0  0  0  0  0  0  0  0  0  0
   -3.8350   -8.2000   22.7226 H   0  0  0  0  0  0  0  0  0  0  0  0
   -2.2809  -11.9742   19.9178 H   0  0  0  0  0  0  0  0  0  0  0  0
   -2.6462  -13.3756   20.9462 H   0  0  0  0  0  0  0  0  0  0  0  0
   -1.9003  -11.9339   21.6330 H   0  0  0  0  0  0  0  0  0  0  0  0
   -5.9815  -11.9477   20.2245 H   0  0  0  0  0  0  0  0  0  0  0  0
   -4.9849  -13.4065   20.2070 H   0  0  0  0  0  0  0  0  0  0  0  0
   -4.6156  -12.0641   19.1115 H   0  0  0  0  0  0  0  0  0  0  0  0
   -6.7535  -11.7210   22.7516 H   0  0  0  0  0  0  0  0  0  0  0  0
   -6.6579  -13.3145   24.7295 H   0  0  0  0  0  0  0  0  0  0  0  0
   -4.3217  -14.2773   25.0636 H   0  0  0  0  0  0  0  0  0  0  0  0
   -0.5583   -6.9518   22.4803 H   0  0  0  0  0  0  0  0  0  0  0  0
    0.1269   -8.2911   21.5196 H   0  0  0  0  0  0  0  0  0  0  0  0
  1  2  1  0
  2  3  1  0
  3  4  1  0
  4  5  1  0
  3  6  1  0
  6  7  2  0
  6  8  1  0
  8  9  1  0
  9 10  1  0
 10 11  1  0
 11 12  1  0
 12 13  1  0
 12 14  1  0
 14 15  2  0
 14 16  1  0
 16 17  1  0
 16 18  1  0
 16 19  1  0
 19 20  2  0
 20 21  1  0
 21 22  1  0
 22 23  2  0
 11 24  1  0
 24  9  1  0
 23 19  1  0
  1 25  1  0
  1 26  1  0
  1 27  1  0
  2 28  1  0
  2 29  1  0
  3 30  1  0
  4 31  1  0
  4 32  1  0
  5 33  1  0
  5 34  1  0
  5 35  1  0
  8 36  1  0
  9 37  1  0
 10 38  1  0
 10 39  1  0
 11 40  1  0
 13 41  1  0
 13 42  1  0
 13 43  1  0
 17 44  1  0
 17 45  1  0
 17 46  1  0
 18 47  1  0
 18 48  1  0
 18 49  1  0
 20 50  1  0
 21 51  1  0
 22 52  1  0
 24 53  1  0
 24 54  1  0
M  END
>  <Energy>  (1174) 
120.36623074530617

>  <compound_id>  (1174) 
73143

>  <target_id>  (1174) 
1

>  <reference_id>  (1174) 
27

>  <inspiration_ids>  (1174) 
[115, 27]

>  <energy_score>  (1174) 
42.65283939257466

>  <distance_score>  (1174) 
14.92233482758433

>  <path>  (1174) 
/opt/xchem-fragalysis-2/maxwin/BulkDock/SCRATCH/511016/C73143-P27/C73143-P27.minimised.mol

>  <scratch_subdir>  (1174) 
/opt/xchem-fragalysis-2/maxwin/BulkDock/SCRATCH/511016/C73143-P27

>  <fragmenstein_runtime>  (1174) 
53.28170728683472

>  <fragmenstein_outcome>  (1174) 
too moved

>  <fragmenstein_mode>  (1174) 
expansion

>  <fragmenstein_error>  (1174) 


$$$$
C44115-P115
     RDKit          3D

 51 52  0  0  0  0  0  0  0  0999 V2000
   11.1604   -6.5144   24.2647 C   0  0  0  0  0  0  0  0  0  0  0  0
    9.8523   -7.3001   24.4296 C   0  0  0  0  0  0  0  0  0  0  0  0
    9.9639   -8.8007   24.0652 C   0  0  0  0  0  0  0  0  0  0  0  0
   10.4705   -8.9607   22.5875 C   0  0  0  0  0  0  0  0  0  0  0  0
    9.7048   -8.1808   21.5179 C   0  0  0  0  0  0  0  0  0  0  0  0
    8.6276   -9.6301   24.2818 C   0  0  0  0  0  0  0  0  0  0  0  0
    8.0273   -9.9145   23.2820 O   0  0  0  0  0  0  0  0  0  0  0  0
    8.3141   -9.8901   25.6845 N   0  0  0  0  0  0  0  0  0  0  0  0
    7.1127  -10.4973   26.3145 C   0  0  0  0  0  0  0  0  0  0  0  0
    6.7774  -11.8942   25.6643 C   0  0  0  0  0  0  0  0  0  0  0  0
    6.2180  -12.3742   27.0046 C   0  0  0  0  0  0  0  0  0  0  0  0
    5.0452  -13.4759   27.6261 N   0  0  0  0  0  0  0  0  0  0  0  0
    4.1056  -14.7770   26.8367 C   0  0  0  0  0  0  0  0  0  0  0  0
    4.1654  -14.9384   25.6535 O   0  0  0  0  0  0  0  0  0  0  0  0
    2.9874  -16.2712   27.6875 C   0  0  0  0  0  0  0  0  0  0  0  0
    2.9478  -17.5256   26.7148 C   0  0  0  0  0  0  0  0  0  0  0  0
    1.1335  -16.7518   28.2985 C   0  0  0  0  0  0  0  0  0  0  0  0
   -0.4439  -17.5171   27.6066 N   0  0  0  0  0  0  0  0  0  0  0  0
   -1.9367  -16.8981   27.4758 C   0  0  0  0  0  0  0  0  0  0  0  0
   -2.7926  -17.9068   27.1099 C   0  0  0  0  0  0  0  0  0  0  0  0
   -2.0515  -18.9623   26.7746 N   0  0  0  0  0  0  0  0  0  0  0  0
   -0.8182  -18.5061   26.7558 C   0  0  0  0  0  0  0  0  0  0  0  0
    6.9135  -11.1613   27.7013 C   0  0  0  0  0  0  0  0  0  0  0  0
   11.4904   -6.4614   23.2257 H   0  0  0  0  0  0  0  0  0  0  0  0
   11.9592   -6.9863   24.8467 H   0  0  0  0  0  0  0  0  0  0  0  0
   11.0384   -5.4948   24.6423 H   0  0  0  0  0  0  0  0  0  0  0  0
    9.5356   -7.2202   25.4770 H   0  0  0  0  0  0  0  0  0  0  0  0
    9.0545   -6.8286   23.8458 H   0  0  0  0  0  0  0  0  0  0  0  0
   10.7150   -9.2707   24.7146 H   0  0  0  0  0  0  0  0  0  0  0  0
   11.5316   -8.6895   22.5314 H   0  0  0  0  0  0  0  0  0  0  0  0
   10.4287  -10.0262   22.3298 H   0  0  0  0  0  0  0  0  0  0  0  0
    8.6264   -8.1687   21.6920 H   0  0  0  0  0  0  0  0  0  0  0  0
   10.0492   -7.1491   21.4692 H   0  0  0  0  0  0  0  0  0  0  0  0
    9.8706   -8.6516   20.5463 H   0  0  0  0  0  0  0  0  0  0  0  0
    9.0064   -9.4319   26.2691 H   0  0  0  0  0  0  0  0  0  0  0  0
    6.3660   -9.6985   26.2583 H   0  0  0  0  0  0  0  0  0  0  0  0
    6.1961  -11.8377   24.7600 H   0  0  0  0  0  0  0  0  0  0  0  0
    7.6931  -12.4291   25.3622 H   0  0  0  0  0  0  0  0  0  0  0  0
    7.0276  -13.1169   27.1299 H   0  0  0  0  0  0  0  0  0  0  0  0
    4.9343  -13.5556   28.6075 H   0  0  0  0  0  0  0  0  0  0  0  0
    3.7537  -16.7675   28.2825 H   0  0  0  0  0  0  0  0  0  0  0  0
    1.9564  -17.8576   26.7782 H   0  0  0  0  0  0  0  0  0  0  0  0
    3.3238  -17.6005   25.7064 H   0  0  0  0  0  0  0  0  0  0  0  0
    3.3476  -18.4463   27.0561 H   0  0  0  0  0  0  0  0  0  0  0  0
    0.6270  -15.9502   28.8288 H   0  0  0  0  0  0  0  0  0  0  0  0
    1.1730  -17.3433   29.2073 H   0  0  0  0  0  0  0  0  0  0  0  0
   -2.0748  -15.8451   27.7173 H   0  0  0  0  0  0  0  0  0  0  0  0
   -3.8724  -17.9009   27.0735 H   0  0  0  0  0  0  0  0  0  0  0  0
   -0.0351  -18.8270   26.1382 H   0  0  0  0  0  0  0  0  0  0  0  0
    6.2628  -10.6012   28.3800 H   0  0  0  0  0  0  0  0  0  0  0  0
    7.8439  -11.4035   28.2266 H   0  0  0  0  0  0  0  0  0  0  0  0
  1  2  1  0
  2  3  1  0
  3  4  1  0
  4  5  1  0
  3  6  1  0
  6  7  2  0
  6  8  1  0
  8  9  1  0
  9 10  1  0
 10 11  1  0
 11 12  1  0
 12 13  1  0
 13 14  2  0
 13 15  1  0
 15 16  1  0
 15 17  1  0
 17 18  1  0
 18 19  1  0
 19 20  2  0
 20 21  1  0
 21 22  2  0
 11 23  1  0
 23  9  1  0
 22 18  1  0
  1 24  1  0
  1 25  1  0
  1 26  1  0
  2 27  1  0
  2 28  1  0
  3 29  1  0
  4 30  1  0
  4 31  1  0
  5 32  1  0
  5 33  1  0
  5 34  1  0
  8 35  1  0
  9 36  1  0
 10 37  1  0
 10 38  1  0
 11 39  1  0
 12 40  1  0
 15 41  1  0
 16 42  1  0
 16 43  1  0
 16 44  1  0
 17 45  1  0
 17 46  1  0
 19 47  1  0
 20 48  1  0
 22 49  1  0
 23 50  1  0
 23 51  1  0
M  END
>  <Energy>  (1175) 
424.52836803216667

>  <compound_id>  (1175) 
44115

>  <target_id>  (1175) 
1

>  <reference_id>  (1175) 
115

>  <inspiration_ids>  (1175) 
[115, 27]

>  <energy_score>  (1175) 
404.4585925541844

>  <distance_score>  (1175) 
12.26462347499783

>  <path>  (1175) 
/opt/xchem-fragalysis-2/maxwin/BulkDock/SCRATCH/511016/C44115-P115/C44115-P115.minimised.mol

>  <scratch_subdir>  (1175) 
/opt/xchem-fragalysis-2/maxwin/BulkDock/SCRATCH/511016/C44115-P115

>  <fragmenstein_runtime>  (1175) 
31.060898780822754

>  <fragmenstein_outcome>  (1175) 
too moved

>  <fragmenstein_mode>  (1175) 
expansion

>  <fragmenstein_error>  (1175) 


$$$$
C44115-P27
     RDKit          3D

 51 52  0  0  0  0  0  0  0  0999 V2000
    9.6800  -10.6949   15.4148 C   0  0  0  0  0  0  0  0  0  0  0  0
    8.2749  -11.2456   15.6317 C   0  0  0  0  0  0  0  0  0  0  0  0
    7.3435  -11.0824   14.4056 C   0  0  0  0  0  0  0  0  0  0  0  0
    6.9550   -9.5995   14.1822 C   0  0  0  0  0  0  0  0  0  0  0  0
    6.4633   -9.3083   12.7765 C   0  0  0  0  0  0  0  0  0  0  0  0
    6.0722  -12.0161   14.4372 C   0  0  0  0  0  0  0  0  0  0  0  0
    5.8511  -12.6930   13.4721 O   0  0  0  0  0  0  0  0  0  0  0  0
    5.3071  -11.8191   15.6428 N   0  0  0  0  0  0  0  0  0  0  0  0
    3.9802  -12.3019   16.0289 C   0  0  0  0  0  0  0  0  0  0  0  0
    3.8481  -13.4299   17.0977 C   0  0  0  0  0  0  0  0  0  0  0  0
    2.3888  -13.5742   16.5064 C   0  0  0  0  0  0  0  0  0  0  0  0
    1.5554  -14.7884   16.7456 N   0  0  0  0  0  0  0  0  0  0  0  0
    0.0960  -14.9637   16.7661 C   0  0  0  0  0  0  0  0  0  0  0  0
   -0.7879  -14.1887   16.5161 O   0  0  0  0  0  0  0  0  0  0  0  0
   -0.3686  -16.4051   17.2911 C   0  0  0  0  0  0  0  0  0  0  0  0
    0.0460  -17.4617   16.2721 C   0  0  0  0  0  0  0  0  0  0  0  0
   -1.9426  -16.4009   17.5276 C   0  0  0  0  0  0  0  0  0  0  0  0
   -2.7169  -17.4332   18.2415 N   0  0  0  0  0  0  0  0  0  0  0  0
   -3.8806  -17.1535   18.9412 C   0  0  0  0  0  0  0  0  0  0  0  0
   -4.5272  -18.3559   19.1169 C   0  0  0  0  0  0  0  0  0  0  0  0
   -3.7637  -19.3779   18.6399 N   0  0  0  0  0  0  0  0  0  0  0  0
   -2.7258  -18.7932   18.0720 C   0  0  0  0  0  0  0  0  0  0  0  0
    3.1228  -13.2677   15.1516 C   0  0  0  0  0  0  0  0  0  0  0  0
    9.6560   -9.6284   15.2317 H   0  0  0  0  0  0  0  0  0  0  0  0
   10.1563  -11.1825   14.5584 H   0  0  0  0  0  0  0  0  0  0  0  0
   10.3013  -10.8849   16.2948 H   0  0  0  0  0  0  0  0  0  0  0  0
    8.3629  -12.3159   15.8588 H   0  0  0  0  0  0  0  0  0  0  0  0
    7.8376  -10.7894   16.5242 H   0  0  0  0  0  0  0  0  0  0  0  0
    7.9211  -11.4165   13.5311 H   0  0  0  0  0  0  0  0  0  0  0  0
    6.1776   -9.3016   14.8943 H   0  0  0  0  0  0  0  0  0  0  0  0
    7.8143   -8.9513   14.3359 H   0  0  0  0  0  0  0  0  0  0  0  0
    6.1505   -8.2667   12.6994 H   0  0  0  0  0  0  0  0  0  0  0  0
    7.2491   -9.4893   12.0368 H   0  0  0  0  0  0  0  0  0  0  0  0
    5.6009   -9.9311   12.5201 H   0  0  0  0  0  0  0  0  0  0  0  0
    5.8393  -11.2408   16.2804 H   0  0  0  0  0  0  0  0  0  0  0  0
    3.4092  -11.4009   16.3077 H   0  0  0  0  0  0  0  0  0  0  0  0
    3.9475  -13.1061   18.1301 H   0  0  0  0  0  0  0  0  0  0  0  0
    4.4998  -14.2998   16.9483 H   0  0  0  0  0  0  0  0  0  0  0  0
    1.7481  -12.7250   16.7710 H   0  0  0  0  0  0  0  0  0  0  0  0
    1.9971  -15.6767   16.9326 H   0  0  0  0  0  0  0  0  0  0  0  0
    0.1256  -16.5888   18.2498 H   0  0  0  0  0  0  0  0  0  0  0  0
    1.1165  -17.4153   16.0508 H   0  0  0  0  0  0  0  0  0  0  0  0
   -0.4857  -17.3212   15.3247 H   0  0  0  0  0  0  0  0  0  0  0  0
   -0.1592  -18.4705   16.6333 H   0  0  0  0  0  0  0  0  0  0  0  0
   -2.4415  -16.3117   16.5524 H   0  0  0  0  0  0  0  0  0  0  0  0
   -2.1734  -15.4772   18.0768 H   0  0  0  0  0  0  0  0  0  0  0  0
   -4.1634  -16.1418   19.1951 H   0  0  0  0  0  0  0  0  0  0  0  0
   -5.4870  -18.5345   19.5838 H   0  0  0  0  0  0  0  0  0  0  0  0
   -1.9768  -19.3172   17.4971 H   0  0  0  0  0  0  0  0  0  0  0  0
    2.5085  -12.7841   14.3875 H   0  0  0  0  0  0  0  0  0  0  0  0
    3.6550  -14.1150   14.7040 H   0  0  0  0  0  0  0  0  0  0  0  0
  1  2  1  0
  2  3  1  0
  3  4  1  0
  4  5  1  0
  3  6  1  0
  6  7  2  0
  6  8  1  0
  8  9  1  0
  9 10  1  0
 10 11  1  0
 11 12  1  0
 12 13  1  0
 13 14  2  0
 13 15  1  0
 15 16  1  0
 15 17  1  0
 17 18  1  0
 18 19  1  0
 19 20  2  0
 20 21  1  0
 21 22  2  0
 11 23  1  0
 23  9  1  0
 22 18  1  0
  1 24  1  0
  1 25  1  0
  1 26  1  0
  2 27  1  0
  2 28  1  0
  3 29  1  0
  4 30  1  0
  4 31  1  0
  5 32  1  0
  5 33  1  0
  5 34  1  0
  8 35  1  0
  9 36  1  0
 10 37  1  0
 10 38  1  0
 11 39  1  0
 12 40  1  0
 15 41  1  0
 16 42  1  0
 16 43  1  0
 16 44  1  0
 17 45  1  0
 17 46  1  0
 19 47  1  0
 20 48  1  0
 22 49  1  0
 23 50  1  0
 23 51  1  0
M  END
>  <Energy>  (1176) 
15.773641000161263

>  <compound_id>  (1176) 
44115

>  <target_id>  (1176) 
1

>  <reference_id>  (1176) 
27

>  <inspiration_ids>  (1176) 
[115, 27]

>  <energy_score>  (1176) 
-4.2961344778219654

>  <distance_score>  (1176) 
14.24374991076414

>  <path>  (1176) 
/opt/xchem-fragalysis-2/maxwin/BulkDock/SCRATCH/511016/C44115-P27/C44115-P27.minimised.mol

>  <scratch_subdir>  (1176) 
/opt/xchem-fragalysis-2/maxwin/BulkDock/SCRATCH/511016/C44115-P27

>  <fragmenstein_runtime>  (1176) 
42.65957736968994

>  <fragmenstein_outcome>  (1176) 
too moved

>  <fragmenstein_mode>  (1176) 
expansion

>  <fragmenstein_error>  (1176) 


$$$$
C44138-P115
     RDKit          3D

 49 50  0  0  0  0  0  0  0  0999 V2000
   12.9254   -5.3605   23.3071 C   0  0  0  0  0  0  0  0  0  0  0  0
   12.1018   -6.5172   23.8783 C   0  0  0  0  0  0  0  0  0  0  0  0
   12.5174   -7.9899   23.5466 C   0  0  0  0  0  0  0  0  0  0  0  0
   12.8838   -8.1259   22.0513 C   0  0  0  0  0  0  0  0  0  0  0  0
   14.2644   -7.6091   21.6542 C   0  0  0  0  0  0  0  0  0  0  0  0
   11.3240   -9.0039   23.8602 C   0  0  0  0  0  0  0  0  0  0  0  0
   10.2209   -8.5408   23.9506 O   0  0  0  0  0  0  0  0  0  0  0  0
   11.7777  -10.3927   23.8936 N   0  0  0  0  0  0  0  0  0  0  0  0
   11.0154  -11.6577   23.9486 C   0  0  0  0  0  0  0  0  0  0  0  0
   11.6908  -12.8606   23.2525 C   0  0  0  0  0  0  0  0  0  0  0  0
   10.7236  -13.8936   24.0422 C   0  0  0  0  0  0  0  0  0  0  0  0
    8.8856  -14.3370   23.9313 N   0  0  0  0  0  0  0  0  0  0  0  0
    8.0238  -16.0105   23.7121 C   0  0  0  0  0  0  0  0  0  0  0  0
    8.5323  -17.1037   23.5119 O   0  0  0  0  0  0  0  0  0  0  0  0
    5.8906  -16.2661   24.0071 C   0  0  0  0  0  0  0  0  0  0  0  0
    3.7117  -17.2087   23.5777 S   0  0  0  0  0  0  0  0  0  0  0  0
    3.0469  -19.5476   23.0326 C   0  0  0  0  0  0  0  0  0  0  0  0
    1.2654  -20.6197   22.5260 C   0  0  0  0  0  0  0  0  0  0  0  0
    0.7072  -22.2512   22.1940 N   0  0  0  0  0  0  0  0  0  0  0  0
   -0.3937  -23.1158   22.3202 C   0  0  0  0  0  0  0  0  0  0  0  0
   -1.0726  -22.4287   23.1980 C   0  0  0  0  0  0  0  0  0  0  0  0
   -0.0295  -21.5020   23.5599 N   0  0  0  0  0  0  0  0  0  0  0  0
   10.8400  -12.6005   25.1403 C   0  0  0  0  0  0  0  0  0  0  0  0
   12.5998   -4.4188   23.7625 H   0  0  0  0  0  0  0  0  0  0  0  0
   12.7822   -5.2581   22.2289 H   0  0  0  0  0  0  0  0  0  0  0  0
   13.9883   -5.4862   23.5309 H   0  0  0  0  0  0  0  0  0  0  0  0
   12.0942   -6.4237   24.9723 H   0  0  0  0  0  0  0  0  0  0  0  0
   11.0644   -6.3579   23.5724 H   0  0  0  0  0  0  0  0  0  0  0  0
   13.3693   -8.2716   24.1772 H   0  0  0  0  0  0  0  0  0  0  0  0
   12.1113   -7.6298   21.4550 H   0  0  0  0  0  0  0  0  0  0  0  0
   12.8511   -9.1885   21.7820 H   0  0  0  0  0  0  0  0  0  0  0  0
   14.9746   -7.6902   22.4830 H   0  0  0  0  0  0  0  0  0  0  0  0
   14.2391   -6.5726   21.3125 H   0  0  0  0  0  0  0  0  0  0  0  0
   14.6676   -8.2054   20.8292 H   0  0  0  0  0  0  0  0  0  0  0  0
   12.7939  -10.4105   23.8712 H   0  0  0  0  0  0  0  0  0  0  0  0
   10.0177  -11.4022   23.5997 H   0  0  0  0  0  0  0  0  0  0  0  0
   11.8076  -12.8549   22.1687 H   0  0  0  0  0  0  0  0  0  0  0  0
   12.7383  -12.9866   23.5840 H   0  0  0  0  0  0  0  0  0  0  0  0
   11.3547  -14.7248   24.3646 H   0  0  0  0  0  0  0  0  0  0  0  0
    8.2125  -13.6218   24.1669 H   0  0  0  0  0  0  0  0  0  0  0  0
    5.6700  -15.6443   24.9033 H   0  0  0  0  0  0  0  0  0  0  0  0
    5.2597  -15.4707   23.6090 H   0  0  0  0  0  0  0  0  0  0  0  0
    3.5454  -20.0113   23.8886 H   0  0  0  0  0  0  0  0  0  0  0  0
    3.4056  -19.4399   22.0419 H   0  0  0  0  0  0  0  0  0  0  0  0
   -0.5021  -24.0402   21.7773 H   0  0  0  0  0  0  0  0  0  0  0  0
   -2.0193  -22.4737   23.7096 H   0  0  0  0  0  0  0  0  0  0  0  0
   -0.4686  -20.6664   23.8632 H   0  0  0  0  0  0  0  0  0  0  0  0
   11.7108  -12.6632   25.8048 H   0  0  0  0  0  0  0  0  0  0  0  0
    9.9452  -12.4232   25.7443 H   0  0  0  0  0  0  0  0  0  0  0  0
  1  2  1  0
  2  3  1  0
  3  4  1  0
  4  5  1  0
  3  6  1  0
  6  7  2  0
  6  8  1  0
  8  9  1  0
  9 10  1  0
 10 11  1  0
 11 12  1  0
 12 13  1  0
 13 14  2  0
 13 15  1  0
 15 16  1  0
 16 17  1  0
 17 18  1  0
 18 19  2  0
 19 20  1  0
 20 21  2  0
 21 22  1  0
 11 23  1  0
 23  9  1  0
 22 18  1  0
  1 24  1  0
  1 25  1  0
  1 26  1  0
  2 27  1  0
  2 28  1  0
  3 29  1  0
  4 30  1  0
  4 31  1  0
  5 32  1  0
  5 33  1  0
  5 34  1  0
  8 35  1  0
  9 36  1  0
 10 37  1  0
 10 38  1  0
 11 39  1  0
 12 40  1  0
 15 41  1  0
 15 42  1  0
 17 43  1  0
 17 44  1  0
 20 45  1  0
 21 46  1  0
 22 47  1  0
 23 48  1  0
 23 49  1  0
M  END
>  <Energy>  (1177) 
989.73282880674276

>  <compound_id>  (1177) 
44138

>  <target_id>  (1177) 
1

>  <reference_id>  (1177) 
115

>  <inspiration_ids>  (1177) 
[115, 27]

>  <energy_score>  (1177) 
942.5799192104391

>  <distance_score>  (1177) 
11.245152930703457

>  <path>  (1177) 
/opt/xchem-fragalysis-2/maxwin/BulkDock/SCRATCH/511016/C44138-P115/C44138-P115.minimised.mol

>  <scratch_subdir>  (1177) 
/opt/xchem-fragalysis-2/maxwin/BulkDock/SCRATCH/511016/C44138-P115

>  <fragmenstein_runtime>  (1177) 
33.09049654006958

>  <fragmenstein_outcome>  (1177) 
too moved

>  <fragmenstein_mode>  (1177) 
expansion

>  <fragmenstein_error>  (1177) 


$$$$
C44138-P27
     RDKit          3D

 49 50  0  0  0  0  0  0  0  0999 V2000
    1.7918   -7.6736   28.1701 C   0  0  0  0  0  0  0  0  0  0  0  0
    1.6839   -9.1044   28.7426 C   0  0  0  0  0  0  0  0  0  0  0  0
    2.6209  -10.1453   28.1242 C   0  0  0  0  0  0  0  0  0  0  0  0
    4.1727   -9.5351   28.3413 C   0  0  0  0  0  0  0  0  0  0  0  0
    4.8425   -8.4146   27.5028 C   0  0  0  0  0  0  0  0  0  0  0  0
    2.6719  -11.7826   28.7540 C   0  0  0  0  0  0  0  0  0  0  0  0
    2.9865  -11.7532   29.9404 O   0  0  0  0  0  0  0  0  0  0  0  0
    2.4104  -13.2903   27.6363 N   0  0  0  0  0  0  0  0  0  0  0  0
    2.4332  -15.1975   28.0665 C   0  0  0  0  0  0  0  0  0  0  0  0
    1.5561  -16.4081   27.7990 C   0  0  0  0  0  0  0  0  0  0  0  0
   -0.0227  -15.8312   28.8520 C   0  0  0  0  0  0  0  0  0  0  0  0
   -1.3843  -14.9430   28.2526 N   0  0  0  0  0  0  0  0  0  0  0  0
   -2.6057  -15.4017   27.5267 C   0  0  0  0  0  0  0  0  0  0  0  0
   -2.9069  -16.4918   27.1052 O   0  0  0  0  0  0  0  0  0  0  0  0
   -3.6337  -14.2801   27.4282 C   0  0  0  0  0  0  0  0  0  0  0  0
   -4.6316  -14.3213   28.9933 S   0  0  0  0  0  0  0  0  0  0  0  0
   -5.5646  -15.9066   28.7852 C   0  0  0  0  0  0  0  0  0  0  0  0
   -5.9925  -16.4820   30.1114 C   0  0  0  0  0  0  0  0  0  0  0  0
   -7.1791  -16.3940   30.6851 N   0  0  0  0  0  0  0  0  0  0  0  0
   -7.0391  -16.9547   31.9309 C   0  0  0  0  0  0  0  0  0  0  0  0
   -5.7870  -17.4959   32.0809 C   0  0  0  0  0  0  0  0  0  0  0  0
   -5.1397  -17.2097   30.9108 N   0  0  0  0  0  0  0  0  0  0  0  0
    1.2105  -15.9822   29.5532 C   0  0  0  0  0  0  0  0  0  0  0  0
    1.7967   -7.6562   27.0795 H   0  0  0  0  0  0  0  0  0  0  0  0
    2.6628   -7.1501   28.5697 H   0  0  0  0  0  0  0  0  0  0  0  0
    0.9174   -7.0992   28.4970 H   0  0  0  0  0  0  0  0  0  0  0  0
    0.6531   -9.4559   28.6075 H   0  0  0  0  0  0  0  0  0  0  0  0
    1.8333   -9.0666   29.8285 H   0  0  0  0  0  0  0  0  0  0  0  0
    2.3259  -10.2107   27.1278 H   0  0  0  0  0  0  0  0  0  0  0  0
    4.1782   -9.1750   29.3813 H   0  0  0  0  0  0  0  0  0  0  0  0
    4.8878  -10.3678   28.3661 H   0  0  0  0  0  0  0  0  0  0  0  0
    4.1709   -7.6196   27.1856 H   0  0  0  0  0  0  0  0  0  0  0  0
    5.3662   -8.8051   26.6325 H   0  0  0  0  0  0  0  0  0  0  0  0
    5.6181   -7.9426   28.1184 H   0  0  0  0  0  0  0  0  0  0  0  0
    2.1370  -12.9963   26.7007 H   0  0  0  0  0  0  0  0  0  0  0  0
    3.4875  -15.4639   27.8301 H   0  0  0  0  0  0  0  0  0  0  0  0
    2.4030  -17.0146   28.1002 H   0  0  0  0  0  0  0  0  0  0  0  0
    1.3816  -17.2724   27.1844 H   0  0  0  0  0  0  0  0  0  0  0  0
   -0.3540  -15.5546   29.8821 H   0  0  0  0  0  0  0  0  0  0  0  0
   -1.5059  -13.9818   28.5269 H   0  0  0  0  0  0  0  0  0  0  0  0
   -3.1446  -13.3068   27.3338 H   0  0  0  0  0  0  0  0  0  0  0  0
   -4.2809  -14.4287   26.5593 H   0  0  0  0  0  0  0  0  0  0  0  0
   -4.9688  -16.6543   28.2609 H   0  0  0  0  0  0  0  0  0  0  0  0
   -6.4498  -15.6957   28.1767 H   0  0  0  0  0  0  0  0  0  0  0  0
   -7.8552  -16.9568   32.6413 H   0  0  0  0  0  0  0  0  0  0  0  0
   -5.3104  -18.0255   32.8928 H   0  0  0  0  0  0  0  0  0  0  0  0
   -4.1742  -17.4114   30.6961 H   0  0  0  0  0  0  0  0  0  0  0  0
    1.2964  -16.0519   30.6539 H   0  0  0  0  0  0  0  0  0  0  0  0
    1.2817  -17.0835   29.7111 H   0  0  0  0  0  0  0  0  0  0  0  0
  1  2  1  0
  2  3  1  0
  3  4  1  0
  4  5  1  0
  3  6  1  0
  6  7  2  0
  6  8  1  0
  8  9  1  0
  9 10  1  0
 10 11  1  0
 11 12  1  0
 12 13  1  0
 13 14  2  0
 13 15  1  0
 15 16  1  0
 16 17  1  0
 17 18  1  0
 18 19  2  0
 19 20  1  0
 20 21  2  0
 21 22  1  0
 11 23  1  0
 23  9  1  0
 22 18  1  0
  1 24  1  0
  1 25  1  0
  1 26  1  0
  2 27  1  0
  2 28  1  0
  3 29  1  0
  4 30  1  0
  4 31  1  0
  5 32  1  0
  5 33  1  0
  5 34  1  0
  8 35  1  0
  9 36  1  0
 10 37  1  0
 10 38  1  0
 11 39  1  0
 12 40  1  0
 15 41  1  0
 15 42  1  0
 17 43  1  0
 17 44  1  0
 20 45  1  0
 21 46  1  0
 22 47  1  0
 23 48  1  0
 23 49  1  0
M  END
>  <Energy>  (1178) 
502.16763457812328

>  <compound_id>  (1178) 
44138

>  <target_id>  (1178) 
1

>  <reference_id>  (1178) 
27

>  <inspiration_ids>  (1178) 
[115, 27]

>  <energy_score>  (1178) 
455.0147249818199

>  <distance_score>  (1178) 
16.97389805230986

>  <path>  (1178) 
/opt/xchem-fragalysis-2/maxwin/BulkDock/SCRATCH/511016/C44138-P27/C44138-P27.minimised.mol

>  <scratch_subdir>  (1178) 
/opt/xchem-fragalysis-2/maxwin/BulkDock/SCRATCH/511016/C44138-P27

>  <fragmenstein_runtime>  (1178) 
39.451011419296265

>  <fragmenstein_outcome>  (1178) 
too moved

>  <fragmenstein_mode>  (1178) 
expansion

>  <fragmenstein_error>  (1178) 


$$$$
C23867-P115
     RDKit          3D

 51 52  0  0  0  0  0  0  0  0999 V2000
   11.8954   -8.0518   23.5440 C   0  0  0  0  0  0  0  0  0  0  0  0
   10.7767   -8.9300   24.1357 C   0  0  0  0  0  0  0  0  0  0  0  0
    9.6439   -8.1912   24.8747 C   0  0  0  0  0  0  0  0  0  0  0  0
    9.1890   -6.9380   24.0052 C   0  0  0  0  0  0  0  0  0  0  0  0
    9.7900   -5.5956   24.4090 C   0  0  0  0  0  0  0  0  0  0  0  0
    8.3407   -8.9915   25.4838 C   0  0  0  0  0  0  0  0  0  0  0  0
    7.4805   -8.2263   25.8396 O   0  0  0  0  0  0  0  0  0  0  0  0
    8.3958  -10.4632   25.5405 N   0  0  0  0  0  0  0  0  0  0  0  0
    7.3425  -11.4879   25.9728 C   0  0  0  0  0  0  0  0  0  0  0  0
    6.5815  -12.0378   24.7548 C   0  0  0  0  0  0  0  0  0  0  0  0
    5.8139  -13.2135   25.8099 C   0  0  0  0  0  0  0  0  0  0  0  0
    4.5528  -14.7331   25.7643 N   0  0  0  0  0  0  0  0  0  0  0  0
    4.4025  -16.1191   24.6341 C   0  0  0  0  0  0  0  0  0  0  0  0
    5.0422  -16.2225   23.6772 O   0  0  0  0  0  0  0  0  0  0  0  0
    3.1389  -17.8145   25.0754 C   0  0  0  0  0  0  0  0  0  0  0  0
    3.8000  -19.1397   25.4305 C   0  0  0  0  0  0  0  0  0  0  0  0
    1.2527  -18.6498   24.8266 C   0  0  0  0  0  0  0  0  0  0  0  0
   -0.1001  -18.4097   26.3749 C   0  0  0  0  0  0  0  0  0  0  0  0
   -1.5736  -18.4923   26.5938 C   0  0  0  0  0  0  0  0  0  0  0  0
   -2.0034  -18.2468   27.8712 N   0  0  0  0  0  0  0  0  0  0  0  0
   -0.9486  -17.8354   28.5082 C   0  0  0  0  0  0  0  0  0  0  0  0
    0.1603  -17.7862   27.6869 N   0  0  0  0  0  0  0  0  0  0  0  0
    7.5225  -13.0416   26.2824 C   0  0  0  0  0  0  0  0  0  0  0  0
   12.6935   -8.6962   23.1593 H   0  0  0  0  0  0  0  0  0  0  0  0
   12.3324   -7.4094   24.3138 H   0  0  0  0  0  0  0  0  0  0  0  0
   11.5530   -7.4378   22.7079 H   0  0  0  0  0  0  0  0  0  0  0  0
   10.3624   -9.5342   23.3352 H   0  0  0  0  0  0  0  0  0  0  0  0
   11.2341   -9.6406   24.8356 H   0  0  0  0  0  0  0  0  0  0  0  0
   10.1028   -7.7870   25.7905 H   0  0  0  0  0  0  0  0  0  0  0  0
    8.0987   -6.8362   24.0171 H   0  0  0  0  0  0  0  0  0  0  0  0
    9.4664   -7.0748   22.9603 H   0  0  0  0  0  0  0  0  0  0  0  0
    9.5050   -5.3434   25.4353 H   0  0  0  0  0  0  0  0  0  0  0  0
   10.8805   -5.5986   24.3502 H   0  0  0  0  0  0  0  0  0  0  0  0
    9.4197   -4.8026   23.7510 H   0  0  0  0  0  0  0  0  0  0  0  0
    9.2373  -10.7808   25.0756 H   0  0  0  0  0  0  0  0  0  0  0  0
    6.7154  -10.9981   26.7294 H   0  0  0  0  0  0  0  0  0  0  0  0
    7.3588  -12.3742   24.0592 H   0  0  0  0  0  0  0  0  0  0  0  0
    6.0814  -11.2872   24.1559 H   0  0  0  0  0  0  0  0  0  0  0  0
    5.4491  -12.8203   26.7718 H   0  0  0  0  0  0  0  0  0  0  0  0
    3.9614  -14.8920   26.5684 H   0  0  0  0  0  0  0  0  0  0  0  0
    2.9640  -17.5125   26.1425 H   0  0  0  0  0  0  0  0  0  0  0  0
    4.7333  -19.6083   25.7333 H   0  0  0  0  0  0  0  0  0  0  0  0
    3.5313  -19.1943   26.4613 H   0  0  0  0  0  0  0  0  0  0  0  0
    3.6540  -19.7867   24.6199 H   0  0  0  0  0  0  0  0  0  0  0  0
    0.5308  -18.5368   24.1280 H   0  0  0  0  0  0  0  0  0  0  0  0
    1.3455  -19.6106   24.4404 H   0  0  0  0  0  0  0  0  0  0  0  0
   -2.3372  -18.7841   25.8722 H   0  0  0  0  0  0  0  0  0  0  0  0
   -0.8975  -17.5387   29.5472 H   0  0  0  0  0  0  0  0  0  0  0  0
    1.0938  -17.5376   27.9962 H   0  0  0  0  0  0  0  0  0  0  0  0
    8.2879  -13.4964   25.6461 H   0  0  0  0  0  0  0  0  0  0  0  0
    7.8176  -13.1907   27.3140 H   0  0  0  0  0  0  0  0  0  0  0  0
  1  2  1  0
  2  3  1  0
  3  4  1  0
  4  5  1  0
  3  6  1  0
  6  7  2  0
  6  8  1  0
  8  9  1  0
  9 10  1  0
 10 11  1  0
 11 12  1  0
 12 13  1  0
 13 14  2  0
 13 15  1  0
 15 16  1  0
 15 17  1  0
 17 18  1  0
 18 19  2  0
 19 20  1  0
 20 21  2  0
 21 22  1  0
 11 23  1  0
 23  9  1  0
 22 18  1  0
  1 24  1  0
  1 25  1  0
  1 26  1  0
  2 27  1  0
  2 28  1  0
  3 29  1  0
  4 30  1  0
  4 31  1  0
  5 32  1  0
  5 33  1  0
  5 34  1  0
  8 35  1  0
  9 36  1  0
 10 37  1  0
 10 38  1  0
 11 39  1  0
 12 40  1  0
 15 41  1  0
 16 42  1  0
 16 43  1  0
 16 44  1  0
 17 45  1  0
 17 46  1  0
 19 47  1  0
 21 48  1  0
 22 49  1  0
 23 50  1  0
 23 51  1  0
M  END
>  <Energy>  (1179) 
569.90703030170334

>  <compound_id>  (1179) 
23867

>  <target_id>  (1179) 
1

>  <reference_id>  (1179) 
115

>  <inspiration_ids>  (1179) 
[115, 27]

>  <energy_score>  (1179) 
539.0317310164469

>  <distance_score>  (1179) 
12.639995862038536

>  <path>  (1179) 
/opt/xchem-fragalysis-2/maxwin/BulkDock/SCRATCH/511016/C23867-P115/C23867-P115.minimised.mol

>  <scratch_subdir>  (1179) 
/opt/xchem-fragalysis-2/maxwin/BulkDock/SCRATCH/511016/C23867-P115

>  <fragmenstein_runtime>  (1179) 
48.36448335647583

>  <fragmenstein_outcome>  (1179) 
too moved

>  <fragmenstein_mode>  (1179) 
expansion

>  <fragmenstein_error>  (1179) 


$$$$
C23867-P27
     RDKit          3D

 51 52  0  0  0  0  0  0  0  0999 V2000
    7.2893   -4.1017   24.3053 C   0  0  0  0  0  0  0  0  0  0  0  0
    7.8152   -4.8947   25.5063 C   0  0  0  0  0  0  0  0  0  0  0  0
    7.4413   -6.4149   25.4985 C   0  0  0  0  0  0  0  0  0  0  0  0
    8.2468   -7.1579   24.4094 C   0  0  0  0  0  0  0  0  0  0  0  0
    9.7680   -7.0587   24.4576 C   0  0  0  0  0  0  0  0  0  0  0  0
    7.5532   -7.0784   26.9372 C   0  0  0  0  0  0  0  0  0  0  0  0
    8.3590   -6.6080   27.6935 O   0  0  0  0  0  0  0  0  0  0  0  0
    6.5624   -8.1465   27.1374 N   0  0  0  0  0  0  0  0  0  0  0  0
    6.1796   -8.9127   28.3715 C   0  0  0  0  0  0  0  0  0  0  0  0
    4.6681   -8.8756   28.7334 C   0  0  0  0  0  0  0  0  0  0  0  0
    4.8092  -10.3110   29.3639 C   0  0  0  0  0  0  0  0  0  0  0  0
    3.5419  -11.1848   29.3168 N   0  0  0  0  0  0  0  0  0  0  0  0
    3.3009  -12.5776   29.7871 C   0  0  0  0  0  0  0  0  0  0  0  0
    4.0592  -13.3882   30.2463 O   0  0  0  0  0  0  0  0  0  0  0  0
    1.7222  -13.0088   29.6994 C   0  0  0  0  0  0  0  0  0  0  0  0
    0.9794  -12.2317   30.7870 C   0  0  0  0  0  0  0  0  0  0  0  0
    1.4781  -14.5856   29.8622 C   0  0  0  0  0  0  0  0  0  0  0  0
    0.0854  -15.2255   29.9180 C   0  0  0  0  0  0  0  0  0  0  0  0
   -1.2279  -14.8247   29.7417 C   0  0  0  0  0  0  0  0  0  0  0  0
   -2.1171  -15.8697   29.9080 N   0  0  0  0  0  0  0  0  0  0  0  0
   -1.3741  -16.9150   30.1789 C   0  0  0  0  0  0  0  0  0  0  0  0
   -0.0479  -16.5841   30.1857 N   0  0  0  0  0  0  0  0  0  0  0  0
    6.0079  -10.4666   28.3357 C   0  0  0  0  0  0  0  0  0  0  0  0
    6.2097   -3.9480   24.4100 H   0  0  0  0  0  0  0  0  0  0  0  0
    7.4441   -4.6177   23.3587 H   0  0  0  0  0  0  0  0  0  0  0  0
    7.7624   -3.1162   24.2620 H   0  0  0  0  0  0  0  0  0  0  0  0
    8.8973   -4.7603   25.5953 H   0  0  0  0  0  0  0  0  0  0  0  0
    7.3941   -4.4372   26.4112 H   0  0  0  0  0  0  0  0  0  0  0  0
    6.3776   -6.4759   25.2281 H   0  0  0  0  0  0  0  0  0  0  0  0
    7.9092   -6.7948   23.4348 H   0  0  0  0  0  0  0  0  0  0  0  0
    7.9968   -8.2225   24.4711 H   0  0  0  0  0  0  0  0  0  0  0  0
   10.2084   -7.5969   23.6122 H   0  0  0  0  0  0  0  0  0  0  0  0
   10.1395   -6.0362   24.4324 H   0  0  0  0  0  0  0  0  0  0  0  0
   10.1460   -7.5212   25.3755 H   0  0  0  0  0  0  0  0  0  0  0  0
    6.1026   -8.3430   26.2533 H   0  0  0  0  0  0  0  0  0  0  0  0
    6.8117   -8.5931   29.2115 H   0  0  0  0  0  0  0  0  0  0  0  0
    4.3810   -8.0907   29.4397 H   0  0  0  0  0  0  0  0  0  0  0  0
    3.9949   -8.8256   27.8755 H   0  0  0  0  0  0  0  0  0  0  0  0
    5.1631  -10.2731   30.4034 H   0  0  0  0  0  0  0  0  0  0  0  0
    2.6533  -10.7589   29.0666 H   0  0  0  0  0  0  0  0  0  0  0  0
    1.3526  -12.7056   28.7131 H   0  0  0  0  0  0  0  0  0  0  0  0
   -0.1012  -12.3795   30.7231 H   0  0  0  0  0  0  0  0  0  0  0  0
    1.1630  -11.1555   30.7084 H   0  0  0  0  0  0  0  0  0  0  0  0
    1.3101  -12.5457   31.7831 H   0  0  0  0  0  0  0  0  0  0  0  0
    2.0211  -15.0712   29.0393 H   0  0  0  0  0  0  0  0  0  0  0  0
    1.9973  -14.8957   30.7803 H   0  0  0  0  0  0  0  0  0  0  0  0
   -1.5900  -13.8344   29.4984 H   0  0  0  0  0  0  0  0  0  0  0  0
   -1.7266  -17.9192   30.3706 H   0  0  0  0  0  0  0  0  0  0  0  0
    0.7206  -17.2228   30.3408 H   0  0  0  0  0  0  0  0  0  0  0  0
    6.8644  -11.0236   28.7293 H   0  0  0  0  0  0  0  0  0  0  0  0
    5.7702  -10.8786   27.3609 H   0  0  0  0  0  0  0  0  0  0  0  0
  1  2  1  0
  2  3  1  0
  3  4  1  0
  4  5  1  0
  3  6  1  0
  6  7  2  0
  6  8  1  0
  8  9  1  0
  9 10  1  0
 10 11  1  0
 11 12  1  0
 12 13  1  0
 13 14  2  0
 13 15  1  0
 15 16  1  0
 15 17  1  0
 17 18  1  0
 18 19  2  0
 19 20  1  0
 20 21  2  0
 21 22  1  0
 11 23  1  0
 23  9  1  0
 22 18  1  0
  1 24  1  0
  1 25  1  0
  1 26  1  0
  2 27  1  0
  2 28  1  0
  3 29  1  0
  4 30  1  0
  4 31  1  0
  5 32  1  0
  5 33  1  0
  5 34  1  0
  8 35  1  0
  9 36  1  0
 10 37  1  0
 10 38  1  0
 11 39  1  0
 12 40  1  0
 15 41  1  0
 16 42  1  0
 16 43  1  0
 16 44  1  0
 17 45  1  0
 17 46  1  0
 19 47  1  0
 21 48  1  0
 22 49  1  0
 23 50  1  0
 23 51  1  0
M  END
>  <Energy>  (1180) 
22.618905769218724

>  <compound_id>  (1180) 
23867

>  <target_id>  (1180) 
1

>  <reference_id>  (1180) 
27

>  <inspiration_ids>  (1180) 
[115, 27]

>  <energy_score>  (1180) 
-8.256393516013986

>  <distance_score>  (1180) 
13.569359205427437

>  <path>  (1180) 
/opt/xchem-fragalysis-2/maxwin/BulkDock/SCRATCH/511016/C23867-P27/C23867-P27.minimised.mol

>  <scratch_subdir>  (1180) 
/opt/xchem-fragalysis-2/maxwin/BulkDock/SCRATCH/511016/C23867-P27

>  <fragmenstein_runtime>  (1180) 
60.5419979095459

>  <fragmenstein_outcome>  (1180) 
too moved

>  <fragmenstein_mode>  (1180) 
expansion

>  <fragmenstein_error>  (1180) 


$$$$
C73144-P115
     RDKit          3D

 51 52  0  0  0  0  0  0  0  0999 V2000
   12.1839   -4.5098   24.1063 C   0  0  0  0  0  0  0  0  0  0  0  0
   12.1385   -5.8560   24.8349 C   0  0  0  0  0  0  0  0  0  0  0  0
   10.8326   -6.7153   24.7343 C   0  0  0  0  0  0  0  0  0  0  0  0
   10.5987   -7.3714   23.3504 C   0  0  0  0  0  0  0  0  0  0  0  0
   11.7466   -7.4234   22.3500 C   0  0  0  0  0  0  0  0  0  0  0  0
   10.7868   -7.8234   25.8774 C   0  0  0  0  0  0  0  0  0  0  0  0
   11.8334   -8.1552   26.3628 O   0  0  0  0  0  0  0  0  0  0  0  0
    9.4204   -8.2811   26.1501 N   0  0  0  0  0  0  0  0  0  0  0  0
    8.8928   -9.2287   27.1819 C   0  0  0  0  0  0  0  0  0  0  0  0
    7.9002   -8.6532   28.2154 C   0  0  0  0  0  0  0  0  0  0  0  0
    6.7797   -9.6178   27.7445 C   0  0  0  0  0  0  0  0  0  0  0  0
    6.1039  -10.4999   28.7834 N   0  0  0  0  0  0  0  0  0  0  0  0
    4.6806  -10.6390   29.1551 C   0  0  0  0  0  0  0  0  0  0  0  0
    3.6925  -10.1438   28.6703 O   0  0  0  0  0  0  0  0  0  0  0  0
    4.3450  -11.5916   30.4454 C   0  0  0  0  0  0  0  0  0  0  0  0
    3.6222  -10.6347   31.4434 C   0  0  0  0  0  0  0  0  0  0  0  0
    5.5790  -12.0943   31.2060 C   0  0  0  0  0  0  0  0  0  0  0  0
    3.3176  -12.7784   30.1487 C   0  0  0  0  0  0  0  0  0  0  0  0
    2.0665  -12.7679   29.5424 C   0  0  0  0  0  0  0  0  0  0  0  0
    1.5528  -14.0381   29.6554 N   0  0  0  0  0  0  0  0  0  0  0  0
    2.4608  -14.7796   30.3494 C   0  0  0  0  0  0  0  0  0  0  0  0
    3.5116  -14.0557   30.6783 N   0  0  0  0  0  0  0  0  0  0  0  0
    7.8070  -10.2450   26.7584 C   0  0  0  0  0  0  0  0  0  0  0  0
   11.3345   -3.8837   24.3921 H   0  0  0  0  0  0  0  0  0  0  0  0
   13.0934   -3.9727   24.3982 H   0  0  0  0  0  0  0  0  0  0  0  0
   12.2199   -4.6154   23.0239 H   0  0  0  0  0  0  0  0  0  0  0  0
   13.0077   -6.4555   24.5398 H   0  0  0  0  0  0  0  0  0  0  0  0
   12.2976   -5.6317   25.8990 H   0  0  0  0  0  0  0  0  0  0  0  0
    9.9898   -6.0448   24.9509 H   0  0  0  0  0  0  0  0  0  0  0  0
   10.2711   -8.4076   23.5047 H   0  0  0  0  0  0  0  0  0  0  0  0
    9.7463   -6.8814   22.8788 H   0  0  0  0  0  0  0  0  0  0  0  0
   11.4170   -7.9840   21.4748 H   0  0  0  0  0  0  0  0  0  0  0  0
   12.6082   -7.9507   22.7707 H   0  0  0  0  0  0  0  0  0  0  0  0
   12.0696   -6.4436   22.0028 H   0  0  0  0  0  0  0  0  0  0  0  0
    8.7686   -7.7211   25.6089 H   0  0  0  0  0  0  0  0  0  0  0  0
    9.7395   -9.7292   27.6703 H   0  0  0  0  0  0  0  0  0  0  0  0
    7.6551   -7.5935   28.0846 H   0  0  0  0  0  0  0  0  0  0  0  0
    8.2171   -8.8025   29.2539 H   0  0  0  0  0  0  0  0  0  0  0  0
    5.9996   -9.0685   27.2014 H   0  0  0  0  0  0  0  0  0  0  0  0
    6.6580  -11.1248   29.3555 H   0  0  0  0  0  0  0  0  0  0  0  0
    4.2561   -9.7755   31.6927 H   0  0  0  0  0  0  0  0  0  0  0  0
    3.3639  -11.1505   32.3760 H   0  0  0  0  0  0  0  0  0  0  0  0
    2.6892  -10.2385   31.0255 H   0  0  0  0  0  0  0  0  0  0  0  0
    6.2415  -11.2683   31.4897 H   0  0  0  0  0  0  0  0  0  0  0  0
    6.1621  -12.7915   30.6127 H   0  0  0  0  0  0  0  0  0  0  0  0
    5.2998  -12.6174   32.1286 H   0  0  0  0  0  0  0  0  0  0  0  0
    1.5130  -11.9791   29.0526 H   0  0  0  0  0  0  0  0  0  0  0  0
    0.6725  -14.3663   29.2825 H   0  0  0  0  0  0  0  0  0  0  0  0
    2.3128  -15.8257   30.5812 H   0  0  0  0  0  0  0  0  0  0  0  0
    8.0683  -11.2853   26.9828 H   0  0  0  0  0  0  0  0  0  0  0  0
    7.5083  -10.1875   25.7062 H   0  0  0  0  0  0  0  0  0  0  0  0
  1  2  1  0
  2  3  1  0
  3  4  1  0
  4  5  1  0
  3  6  1  0
  6  7  2  0
  6  8  1  0
  8  9  1  0
  9 10  1  0
 10 11  1  0
 11 12  1  0
 12 13  1  0
 13 14  2  0
 13 15  1  0
 15 16  1  0
 15 17  1  0
 15 18  1  0
 18 19  2  0
 19 20  1  0
 20 21  1  0
 21 22  2  0
 11 23  1  0
 23  9  1  0
 22 18  1  0
  1 24  1  0
  1 25  1  0
  1 26  1  0
  2 27  1  0
  2 28  1  0
  3 29  1  0
  4 30  1  0
  4 31  1  0
  5 32  1  0
  5 33  1  0
  5 34  1  0
  8 35  1  0
  9 36  1  0
 10 37  1  0
 10 38  1  0
 11 39  1  0
 12 40  1  0
 16 41  1  0
 16 42  1  0
 16 43  1  0
 17 44  1  0
 17 45  1  0
 17 46  1  0
 19 47  1  0
 20 48  1  0
 21 49  1  0
 23 50  1  0
 23 51  1  0
M  END
>  <Energy>  (1181) 
55.852563144371274

>  <compound_id>  (1181) 
73144

>  <target_id>  (1181) 
1

>  <reference_id>  (1181) 
115

>  <inspiration_ids>  (1181) 
[115, 27]

>  <energy_score>  (1181) 
1.3561774717252888

>  <distance_score>  (1181) 
13.732942600814777

>  <path>  (1181) 
/opt/xchem-fragalysis-2/maxwin/BulkDock/SCRATCH/511016/C73144-P115/C73144-P115.minimised.mol

>  <scratch_subdir>  (1181) 
/opt/xchem-fragalysis-2/maxwin/BulkDock/SCRATCH/511016/C73144-P115

>  <fragmenstein_runtime>  (1181) 
52.893574476242065

>  <fragmenstein_outcome>  (1181) 
too moved

>  <fragmenstein_mode>  (1181) 
expansion

>  <fragmenstein_error>  (1181) 


$$$$
C73144-P27
     RDKit          3D

 51 52  0  0  0  0  0  0  0  0999 V2000
   12.1394   -6.3201   23.6903 C   0  0  0  0  0  0  0  0  0  0  0  0
   11.1821   -7.0767   22.7708 C   0  0  0  0  0  0  0  0  0  0  0  0
   11.3148   -6.8873   21.2085 C   0  0  0  0  0  0  0  0  0  0  0  0
   12.3919   -5.6860   20.9480 C   0  0  0  0  0  0  0  0  0  0  0  0
   13.0318   -5.1056   19.6831 C   0  0  0  0  0  0  0  0  0  0  0  0
    9.6121   -7.2515   20.6638 C   0  0  0  0  0  0  0  0  0  0  0  0
    8.7296   -6.4572   20.8814 O   0  0  0  0  0  0  0  0  0  0  0  0
    9.5447   -8.7283   20.0383 N   0  0  0  0  0  0  0  0  0  0  0  0
    7.9162   -9.9028   19.5111 C   0  0  0  0  0  0  0  0  0  0  0  0
    6.5914   -8.4048   20.4571 C   0  0  0  0  0  0  0  0  0  0  0  0
    5.3850  -10.5389   21.4698 C   0  0  0  0  0  0  0  0  0  0  0  0
    3.6119  -11.7760   22.3768 N   0  0  0  0  0  0  0  0  0  0  0  0
    1.4770  -11.6775   22.3670 C   0  0  0  0  0  0  0  0  0  0  0  0
    0.9529  -10.6417   21.8039 O   0  0  0  0  0  0  0  0  0  0  0  0
   -0.1825  -13.1244   22.9177 C   0  0  0  0  0  0  0  0  0  0  0  0
   -1.4227  -13.9301   24.2829 C   0  0  0  0  0  0  0  0  0  0  0  0
    0.8045  -14.0799   23.9538 C   0  0  0  0  0  0  0  0  0  0  0  0
   -1.5500  -13.9728   22.0047 C   0  0  0  0  0  0  0  0  0  0  0  0
   -1.9729  -15.3293   21.9672 C   0  0  0  0  0  0  0  0  0  0  0  0
   -3.2961  -15.3486   21.6184 N   0  0  0  0  0  0  0  0  0  0  0  0
   -3.6677  -14.0580   21.4253 C   0  0  0  0  0  0  0  0  0  0  0  0
   -2.6721  -13.2235   21.6492 N   0  0  0  0  0  0  0  0  0  0  0  0
    6.5135  -11.2127   20.1085 C   0  0  0  0  0  0  0  0  0  0  0  0
   13.1807   -6.6031   23.5120 H   0  0  0  0  0  0  0  0  0  0  0  0
   11.9191   -6.5893   24.7300 H   0  0  0  0  0  0  0  0  0  0  0  0
   12.0354   -5.2352   23.6241 H   0  0  0  0  0  0  0  0  0  0  0  0
   10.1602   -6.8583   23.0991 H   0  0  0  0  0  0  0  0  0  0  0  0
   11.3003   -8.1490   22.9840 H   0  0  0  0  0  0  0  0  0  0  0  0
   11.8681   -7.7968   20.9877 H   0  0  0  0  0  0  0  0  0  0  0  0
   13.2894   -6.0741   21.4544 H   0  0  0  0  0  0  0  0  0  0  0  0
   12.1701   -4.7969   21.5396 H   0  0  0  0  0  0  0  0  0  0  0  0
   13.9480   -5.6345   19.4127 H   0  0  0  0  0  0  0  0  0  0  0  0
   13.3780   -4.0874   19.9102 H   0  0  0  0  0  0  0  0  0  0  0  0
   12.4043   -5.0049   18.8124 H   0  0  0  0  0  0  0  0  0  0  0  0
   10.4851   -9.0869   19.9156 H   0  0  0  0  0  0  0  0  0  0  0  0
    8.2736  -10.1378   18.4819 H   0  0  0  0  0  0  0  0  0  0  0  0
    5.8895   -7.8776   19.6220 H   0  0  0  0  0  0  0  0  0  0  0  0
    6.9306   -7.4177   20.9436 H   0  0  0  0  0  0  0  0  0  0  0  0
    5.9221  -10.8460   22.4293 H   0  0  0  0  0  0  0  0  0  0  0  0
    3.8790  -12.5498   22.8944 H   0  0  0  0  0  0  0  0  0  0  0  0
   -1.2975  -13.6475   25.3506 H   0  0  0  0  0  0  0  0  0  0  0  0
   -1.4121  -15.0215   24.2870 H   0  0  0  0  0  0  0  0  0  0  0  0
   -2.5071  -13.7463   24.1490 H   0  0  0  0  0  0  0  0  0  0  0  0
    0.4117  -14.3328   24.9458 H   0  0  0  0  0  0  0  0  0  0  0  0
    1.4303  -14.7211   23.3731 H   0  0  0  0  0  0  0  0  0  0  0  0
    1.6553  -13.3278   24.2846 H   0  0  0  0  0  0  0  0  0  0  0  0
   -1.4812  -16.2620   22.1750 H   0  0  0  0  0  0  0  0  0  0  0  0
   -3.8794  -16.1675   21.5078 H   0  0  0  0  0  0  0  0  0  0  0  0
   -4.6677  -13.7763   21.1230 H   0  0  0  0  0  0  0  0  0  0  0  0
    5.8802  -11.5137   19.2847 H   0  0  0  0  0  0  0  0  0  0  0  0
    6.8219  -12.2135   20.4367 H   0  0  0  0  0  0  0  0  0  0  0  0
  1  2  1  0
  2  3  1  0
  3  4  1  0
  4  5  1  0
  3  6  1  0
  6  7  2  0
  6  8  1  0
  8  9  1  0
  9 10  1  0
 10 11  1  0
 11 12  1  0
 12 13  1  0
 13 14  2  0
 13 15  1  0
 15 16  1  0
 15 17  1  0
 15 18  1  0
 18 19  2  0
 19 20  1  0
 20 21  1  0
 21 22  2  0
 11 23  1  0
 23  9  1  0
 22 18  1  0
  1 24  1  0
  1 25  1  0
  1 26  1  0
  2 27  1  0
  2 28  1  0
  3 29  1  0
  4 30  1  0
  4 31  1  0
  5 32  1  0
  5 33  1  0
  5 34  1  0
  8 35  1  0
  9 36  1  0
 10 37  1  0
 10 38  1  0
 11 39  1  0
 12 40  1  0
 16 41  1  0
 16 42  1  0
 16 43  1  0
 17 44  1  0
 17 45  1  0
 17 46  1  0
 19 47  1  0
 20 48  1  0
 21 49  1  0
 23 50  1  0
 23 51  1  0
M  END
>  <Energy>  (1182) 
1968.8529557686559

>  <compound_id>  (1182) 
73144

>  <target_id>  (1182) 
1

>  <reference_id>  (1182) 
27

>  <inspiration_ids>  (1182) 
[115, 27]

>  <energy_score>  (1182) 
1914.3565700960012

>  <distance_score>  (1182) 
12.111163135294237

>  <path>  (1182) 
/opt/xchem-fragalysis-2/maxwin/BulkDock/SCRATCH/511016/C73144-P27/C73144-P27.minimised.mol

>  <scratch_subdir>  (1182) 
/opt/xchem-fragalysis-2/maxwin/BulkDock/SCRATCH/511016/C73144-P27

>  <fragmenstein_runtime>  (1182) 
28.163797616958618

>  <fragmenstein_outcome>  (1182) 
too moved

>  <fragmenstein_mode>  (1182) 
expansion

>  <fragmenstein_error>  (1182) 


$$$$
C73145-P115
     RDKit          3D

 51 52  0  0  0  0  0  0  0  0999 V2000
   11.7909   -4.2506   23.5479 C   0  0  0  0  0  0  0  0  0  0  0  0
   11.1411   -5.3776   24.3530 C   0  0  0  0  0  0  0  0  0  0  0  0
    9.8904   -5.0235   25.2215 C   0  0  0  0  0  0  0  0  0  0  0  0
    9.0523   -3.8537   24.6535 C   0  0  0  0  0  0  0  0  0  0  0  0
    8.3089   -4.1408   23.3672 C   0  0  0  0  0  0  0  0  0  0  0  0
    9.0019   -6.2972   25.6040 C   0  0  0  0  0  0  0  0  0  0  0  0
    9.1074   -7.3089   24.9653 O   0  0  0  0  0  0  0  0  0  0  0  0
    8.1491   -5.9773   26.7474 N   0  0  0  0  0  0  0  0  0  0  0  0
    7.0779   -6.7644   27.4174 C   0  0  0  0  0  0  0  0  0  0  0  0
    7.4194   -8.0969   28.1192 C   0  0  0  0  0  0  0  0  0  0  0  0
    5.9077   -8.5665   27.8482 C   0  0  0  0  0  0  0  0  0  0  0  0
    4.8349   -8.2564   28.9703 C   0  0  0  0  0  0  0  0  0  0  0  0
    3.7972   -9.3221   29.3020 N   0  0  0  0  0  0  0  0  0  0  0  0
    2.3164   -9.2272   29.4544 C   0  0  0  0  0  0  0  0  0  0  0  0
    1.5707   -8.3020   29.2725 O   0  0  0  0  0  0  0  0  0  0  0  0
    1.6497  -10.5634   30.0628 C   0  0  0  0  0  0  0  0  0  0  0  0
    0.0535  -10.6925   29.9371 C   0  0  0  0  0  0  0  0  0  0  0  0
   -0.7377  -11.9187   30.4432 C   0  0  0  0  0  0  0  0  0  0  0  0
   -1.8799  -12.4856   29.8844 C   0  0  0  0  0  0  0  0  0  0  0  0
   -2.2117  -13.5582   30.6721 N   0  0  0  0  0  0  0  0  0  0  0  0
   -1.3028  -13.6033   31.6875 C   0  0  0  0  0  0  0  0  0  0  0  0
   -0.4159  -12.6311   31.5854 N   0  0  0  0  0  0  0  0  0  0  0  0
    6.0754   -7.5844   26.5836 C   0  0  0  0  0  0  0  0  0  0  0  0
   11.9904   -3.3789   24.1778 H   0  0  0  0  0  0  0  0  0  0  0  0
   12.7461   -4.5930   23.1364 H   0  0  0  0  0  0  0  0  0  0  0  0
   11.1639   -3.9578   22.7061 H   0  0  0  0  0  0  0  0  0  0  0  0
   11.9004   -5.7728   25.0423 H   0  0  0  0  0  0  0  0  0  0  0  0
   10.9336   -6.2146   23.6844 H   0  0  0  0  0  0  0  0  0  0  0  0
   10.3003   -4.6646   26.1780 H   0  0  0  0  0  0  0  0  0  0  0  0
    9.6785   -2.9639   24.5263 H   0  0  0  0  0  0  0  0  0  0  0  0
    8.3023   -3.5670   25.4010 H   0  0  0  0  0  0  0  0  0  0  0  0
    8.9783   -4.2420   22.5167 H   0  0  0  0  0  0  0  0  0  0  0  0
    7.7151   -5.0512   23.4708 H   0  0  0  0  0  0  0  0  0  0  0  0
    7.6239   -3.3151   23.1514 H   0  0  0  0  0  0  0  0  0  0  0  0
    8.2634   -4.9977   26.9820 H   0  0  0  0  0  0  0  0  0  0  0  0
    6.5550   -6.0803   28.1027 H   0  0  0  0  0  0  0  0  0  0  0  0
    8.1678   -8.7069   27.5982 H   0  0  0  0  0  0  0  0  0  0  0  0
    7.7074   -8.0171   29.1711 H   0  0  0  0  0  0  0  0  0  0  0  0
    5.8524   -9.6277   27.5769 H   0  0  0  0  0  0  0  0  0  0  0  0
    5.3633   -8.1029   29.9178 H   0  0  0  0  0  0  0  0  0  0  0  0
    4.3011   -7.3292   28.7500 H   0  0  0  0  0  0  0  0  0  0  0  0
    4.1078  -10.2354   29.6225 H   0  0  0  0  0  0  0  0  0  0  0  0
    2.1496  -11.3942   29.5823 H   0  0  0  0  0  0  0  0  0  0  0  0
    1.9137  -10.5907   31.1264 H   0  0  0  0  0  0  0  0  0  0  0  0
   -0.3750   -9.8224   30.4528 H   0  0  0  0  0  0  0  0  0  0  0  0
   -0.1928  -10.5548   28.8754 H   0  0  0  0  0  0  0  0  0  0  0  0
   -2.4535  -12.2270   29.0057 H   0  0  0  0  0  0  0  0  0  0  0  0
   -2.9855  -14.1933   30.5333 H   0  0  0  0  0  0  0  0  0  0  0  0
   -1.3315  -14.3531   32.4666 H   0  0  0  0  0  0  0  0  0  0  0  0
    6.5019   -8.0796   25.7036 H   0  0  0  0  0  0  0  0  0  0  0  0
    5.1954   -7.0212   26.2727 H   0  0  0  0  0  0  0  0  0  0  0  0
  1  2  1  0
  2  3  1  0
  3  4  1  0
  4  5  1  0
  3  6  1  0
  6  7  2  0
  6  8  1  0
  8  9  1  0
  9 10  1  0
 10 11  1  0
 11 12  1  0
 12 13  1  0
 13 14  1  0
 14 15  2  0
 14 16  1  0
 16 17  1  0
 17 18  1  0
 18 19  2  0
 19 20  1  0
 20 21  1  0
 21 22  2  0
 11 23  1  0
 23  9  1  0
 22 18  1  0
  1 24  1  0
  1 25  1  0
  1 26  1  0
  2 27  1  0
  2 28  1  0
  3 29  1  0
  4 30  1  0
  4 31  1  0
  5 32  1  0
  5 33  1  0
  5 34  1  0
  8 35  1  0
  9 36  1  0
 10 37  1  0
 10 38  1  0
 11 39  1  0
 12 40  1  0
 12 41  1  0
 13 42  1  0
 16 43  1  0
 16 44  1  0
 17 45  1  0
 17 46  1  0
 19 47  1  0
 20 48  1  0
 21 49  1  0
 23 50  1  0
 23 51  1  0
M  END
>  <Energy>  (1183) 
18.52517950762217

>  <compound_id>  (1183) 
73145

>  <target_id>  (1183) 
1

>  <reference_id>  (1183) 
115

>  <inspiration_ids>  (1183) 
[115, 27]

>  <energy_score>  (1183) 
4.421978674114143

>  <distance_score>  (1183) 
12.988966981834505

>  <path>  (1183) 
/opt/xchem-fragalysis-2/maxwin/BulkDock/SCRATCH/511016/C73145-P115/C73145-P115.minimised.mol

>  <scratch_subdir>  (1183) 
/opt/xchem-fragalysis-2/maxwin/BulkDock/SCRATCH/511016/C73145-P115

>  <fragmenstein_runtime>  (1183) 
44.438480615615845

>  <fragmenstein_outcome>  (1183) 
too moved

>  <fragmenstein_mode>  (1183) 
expansion

>  <fragmenstein_error>  (1183) 


$$$$
C73145-P27
     RDKit          3D

 51 52  0  0  0  0  0  0  0  0999 V2000
   11.0441   -7.3559   25.2542 C   0  0  0  0  0  0  0  0  0  0  0  0
   10.9124   -8.8421   25.6263 C   0  0  0  0  0  0  0  0  0  0  0  0
   10.8821   -9.8351   24.4583 C   0  0  0  0  0  0  0  0  0  0  0  0
   12.1523   -9.7253   23.5337 C   0  0  0  0  0  0  0  0  0  0  0  0
   12.2936   -8.4947   22.6220 C   0  0  0  0  0  0  0  0  0  0  0  0
   10.4940  -11.3923   24.7691 C   0  0  0  0  0  0  0  0  0  0  0  0
   11.3571  -12.2134   24.6054 O   0  0  0  0  0  0  0  0  0  0  0  0
    9.0706  -11.5529   25.1187 N   0  0  0  0  0  0  0  0  0  0  0  0
    8.2195  -12.8023   25.2793 C   0  0  0  0  0  0  0  0  0  0  0  0
    8.8698  -14.1619   25.1189 C   0  0  0  0  0  0  0  0  0  0  0  0
    7.4404  -15.1896   25.8029 C   0  0  0  0  0  0  0  0  0  0  0  0
    6.0298  -16.1624   24.6096 C   0  0  0  0  0  0  0  0  0  0  0  0
    4.2866  -16.9587   24.4315 N   0  0  0  0  0  0  0  0  0  0  0  0
    3.5891  -18.5329   25.1576 C   0  0  0  0  0  0  0  0  0  0  0  0
    4.1078  -19.3300   25.9754 O   0  0  0  0  0  0  0  0  0  0  0  0
    2.1490  -18.9600   24.8772 C   0  0  0  0  0  0  0  0  0  0  0  0
    1.2461  -20.3234   25.1982 C   0  0  0  0  0  0  0  0  0  0  0  0
   -0.0344  -20.2407   26.0300 C   0  0  0  0  0  0  0  0  0  0  0  0
   -0.2860  -20.7942   27.2756 C   0  0  0  0  0  0  0  0  0  0  0  0
   -1.6256  -20.6320   27.5066 N   0  0  0  0  0  0  0  0  0  0  0  0
   -2.1474  -19.9975   26.4181 C   0  0  0  0  0  0  0  0  0  0  0  0
   -1.2206  -19.7393   25.5173 N   0  0  0  0  0  0  0  0  0  0  0  0
    7.5330  -13.3820   26.4895 C   0  0  0  0  0  0  0  0  0  0  0  0
   12.0847   -7.0905   25.0576 H   0  0  0  0  0  0  0  0  0  0  0  0
   10.4212   -7.0880   24.3999 H   0  0  0  0  0  0  0  0  0  0  0  0
   10.7254   -6.7419   26.1039 H   0  0  0  0  0  0  0  0  0  0  0  0
    9.9860   -8.9633   26.2014 H   0  0  0  0  0  0  0  0  0  0  0  0
   11.7231   -9.1123   26.3136 H   0  0  0  0  0  0  0  0  0  0  0  0
   10.0591   -9.5171   23.8314 H   0  0  0  0  0  0  0  0  0  0  0  0
   12.1704  -10.6037   22.8768 H   0  0  0  0  0  0  0  0  0  0  0  0
   13.0515   -9.8105   24.1568 H   0  0  0  0  0  0  0  0  0  0  0  0
   12.7078   -7.6381   23.1548 H   0  0  0  0  0  0  0  0  0  0  0  0
   13.0027   -8.7228   21.8197 H   0  0  0  0  0  0  0  0  0  0  0  0
   11.3479   -8.2017   22.1688 H   0  0  0  0  0  0  0  0  0  0  0  0
    8.6573  -10.6379   25.2563 H   0  0  0  0  0  0  0  0  0  0  0  0
    7.4443  -12.5620   24.5465 H   0  0  0  0  0  0  0  0  0  0  0  0
    9.7740  -14.2548   25.7363 H   0  0  0  0  0  0  0  0  0  0  0  0
    9.0807  -14.1811   24.0496 H   0  0  0  0  0  0  0  0  0  0  0  0
    7.9288  -15.7920   26.5614 H   0  0  0  0  0  0  0  0  0  0  0  0
    6.5628  -16.6338   23.7900 H   0  0  0  0  0  0  0  0  0  0  0  0
    5.3228  -15.2876   24.4958 H   0  0  0  0  0  0  0  0  0  0  0  0
    3.6590  -16.5857   23.7235 H   0  0  0  0  0  0  0  0  0  0  0  0
    2.0314  -18.7870   25.9579 H   0  0  0  0  0  0  0  0  0  0  0  0
    2.6784  -19.6522   24.1909 H   0  0  0  0  0  0  0  0  0  0  0  0
    1.9115  -21.0607   25.6702 H   0  0  0  0  0  0  0  0  0  0  0  0
    0.9362  -20.7430   24.2296 H   0  0  0  0  0  0  0  0  0  0  0  0
    0.3576  -21.3120   27.9727 H   0  0  0  0  0  0  0  0  0  0  0  0
   -2.1382  -20.9389   28.3214 H   0  0  0  0  0  0  0  0  0  0  0  0
   -3.1975  -19.7516   26.3348 H   0  0  0  0  0  0  0  0  0  0  0  0
    6.5881  -12.8672   26.6968 H   0  0  0  0  0  0  0  0  0  0  0  0
    8.1919  -13.2996   27.3647 H   0  0  0  0  0  0  0  0  0  0  0  0
  1  2  1  0
  2  3  1  0
  3  4  1  0
  4  5  1  0
  3  6  1  0
  6  7  2  0
  6  8  1  0
  8  9  1  0
  9 10  1  0
 10 11  1  0
 11 12  1  0
 12 13  1  0
 13 14  1  0
 14 15  2  0
 14 16  1  0
 16 17  1  0
 17 18  1  0
 18 19  2  0
 19 20  1  0
 20 21  1  0
 21 22  2  0
 11 23  1  0
 23  9  1  0
 22 18  1  0
  1 24  1  0
  1 25  1  0
  1 26  1  0
  2 27  1  0
  2 28  1  0
  3 29  1  0
  4 30  1  0
  4 31  1  0
  5 32  1  0
  5 33  1  0
  5 34  1  0
  8 35  1  0
  9 36  1  0
 10 37  1  0
 10 38  1  0
 11 39  1  0
 12 40  1  0
 12 41  1  0
 13 42  1  0
 16 43  1  0
 16 44  1  0
 17 45  1  0
 17 46  1  0
 19 47  1  0
 20 48  1  0
 21 49  1  0
 23 50  1  0
 23 51  1  0
M  END
>  <Energy>  (1184) 
429.09096854495135

>  <compound_id>  (1184) 
73145

>  <target_id>  (1184) 
1

>  <reference_id>  (1184) 
27

>  <inspiration_ids>  (1184) 
[115, 27]

>  <energy_score>  (1184) 
414.9877677114415

>  <distance_score>  (1184) 
12.550918447337107

>  <path>  (1184) 
/opt/xchem-fragalysis-2/maxwin/BulkDock/SCRATCH/511016/C73145-P27/C73145-P27.minimised.mol

>  <scratch_subdir>  (1184) 
/opt/xchem-fragalysis-2/maxwin/BulkDock/SCRATCH/511016/C73145-P27

>  <fragmenstein_runtime>  (1184) 
44.446202993392944

>  <fragmenstein_outcome>  (1184) 
too moved

>  <fragmenstein_mode>  (1184) 
expansion

>  <fragmenstein_error>  (1184) 


$$$$
C44113-P115
     RDKit          3D

 51 52  0  0  0  0  0  0  0  0999 V2000
   15.7029   -3.9918   20.6792 C   0  0  0  0  0  0  0  0  0  0  0  0
   16.3418   -5.3756   20.5589 C   0  0  0  0  0  0  0  0  0  0  0  0
   16.0199   -6.1293   19.2567 C   0  0  0  0  0  0  0  0  0  0  0  0
   16.4318   -5.3043   17.9948 C   0  0  0  0  0  0  0  0  0  0  0  0
   15.3785   -4.3197   17.4654 C   0  0  0  0  0  0  0  0  0  0  0  0
   16.6766   -7.5894   19.2477 C   0  0  0  0  0  0  0  0  0  0  0  0
   17.7720   -7.7039   18.7699 O   0  0  0  0  0  0  0  0  0  0  0  0
   15.8048   -8.5807   19.8834 N   0  0  0  0  0  0  0  0  0  0  0  0
   15.9604  -10.0592   20.0496 C   0  0  0  0  0  0  0  0  0  0  0  0
   16.1621  -10.9251   18.7811 C   0  0  0  0  0  0  0  0  0  0  0  0
   15.2995  -12.0750   19.4537 C   0  0  0  0  0  0  0  0  0  0  0  0
   14.5073  -12.9568   18.4535 C   0  0  0  0  0  0  0  0  0  0  0  0
   13.8200  -14.1482   19.0242 N   0  0  0  0  0  0  0  0  0  0  0  0
   13.6175  -15.5010   18.4722 C   0  0  0  0  0  0  0  0  0  0  0  0
   14.0256  -16.0007   17.4604 O   0  0  0  0  0  0  0  0  0  0  0  0
   12.6177  -16.3515   19.3335 C   0  0  0  0  0  0  0  0  0  0  0  0
   12.3968  -17.8441   18.8792 C   0  0  0  0  0  0  0  0  0  0  0  0
   11.2295  -18.5955   19.4021 N   0  0  0  0  0  0  0  0  0  0  0  0
   10.0088  -18.7172   18.7786 C   0  0  0  0  0  0  0  0  0  0  0  0
    9.2378  -19.5182   19.5851 C   0  0  0  0  0  0  0  0  0  0  0  0
    9.9922  -20.0079   20.6200 N   0  0  0  0  0  0  0  0  0  0  0  0
   11.1860  -19.4726   20.4656 C   0  0  0  0  0  0  0  0  0  0  0  0
   14.6537  -10.8955   20.2695 C   0  0  0  0  0  0  0  0  0  0  0  0
   14.6395   -4.0184   20.4234 H   0  0  0  0  0  0  0  0  0  0  0  0
   15.7915   -3.6348   21.7109 H   0  0  0  0  0  0  0  0  0  0  0  0
   16.2150   -3.2622   20.0469 H   0  0  0  0  0  0  0  0  0  0  0  0
   16.0025   -5.9861   21.4054 H   0  0  0  0  0  0  0  0  0  0  0  0
   17.4285   -5.2812   20.6753 H   0  0  0  0  0  0  0  0  0  0  0  0
   14.9400   -6.2469   19.2398 H   0  0  0  0  0  0  0  0  0  0  0  0
   17.3619   -4.7578   18.1955 H   0  0  0  0  0  0  0  0  0  0  0  0
   16.6763   -5.9912   17.1771 H   0  0  0  0  0  0  0  0  0  0  0  0
   14.3772   -4.7533   17.4278 H   0  0  0  0  0  0  0  0  0  0  0  0
   15.6486   -4.0061   16.4513 H   0  0  0  0  0  0  0  0  0  0  0  0
   15.3256   -3.4140   18.0720 H   0  0  0  0  0  0  0  0  0  0  0  0
   14.9859   -8.1156   20.2458 H   0  0  0  0  0  0  0  0  0  0  0  0
   16.7163  -10.2641   20.8192 H   0  0  0  0  0  0  0  0  0  0  0  0
   17.1997  -11.1981   18.5657 H   0  0  0  0  0  0  0  0  0  0  0  0
   15.7236  -10.5119   17.8717 H   0  0  0  0  0  0  0  0  0  0  0  0
   15.9291  -12.7144   20.0902 H   0  0  0  0  0  0  0  0  0  0  0  0
   13.7356  -12.3633   17.9521 H   0  0  0  0  0  0  0  0  0  0  0  0
   15.1850  -13.3373   17.6815 H   0  0  0  0  0  0  0  0  0  0  0  0
   13.2585  -14.0434   19.8597 H   0  0  0  0  0  0  0  0  0  0  0  0
   12.9847  -16.3466   20.3646 H   0  0  0  0  0  0  0  0  0  0  0  0
   11.6584  -15.8270   19.2669 H   0  0  0  0  0  0  0  0  0  0  0  0
   12.3023  -17.8855   17.7870 H   0  0  0  0  0  0  0  0  0  0  0  0
   13.2825  -18.4353   19.1417 H   0  0  0  0  0  0  0  0  0  0  0  0
    9.8158  -18.2315   17.8367 H   0  0  0  0  0  0  0  0  0  0  0  0
    8.2028  -19.7913   19.4433 H   0  0  0  0  0  0  0  0  0  0  0  0
   12.0448  -19.6623   21.0954 H   0  0  0  0  0  0  0  0  0  0  0  0
   13.7527  -10.4955   19.8042 H   0  0  0  0  0  0  0  0  0  0  0  0
   14.4254  -11.1304   21.3133 H   0  0  0  0  0  0  0  0  0  0  0  0
  1  2  1  0
  2  3  1  0
  3  4  1  0
  4  5  1  0
  3  6  1  0
  6  7  2  0
  6  8  1  0
  8  9  1  0
  9 10  1  0
 10 11  1  0
 11 12  1  0
 12 13  1  0
 13 14  1  0
 14 15  2  0
 14 16  1  0
 16 17  1  0
 17 18  1  0
 18 19  1  0
 19 20  2  0
 20 21  1  0
 21 22  2  0
 11 23  1  0
 23  9  1  0
 22 18  1  0
  1 24  1  0
  1 25  1  0
  1 26  1  0
  2 27  1  0
  2 28  1  0
  3 29  1  0
  4 30  1  0
  4 31  1  0
  5 32  1  0
  5 33  1  0
  5 34  1  0
  8 35  1  0
  9 36  1  0
 10 37  1  0
 10 38  1  0
 11 39  1  0
 12 40  1  0
 12 41  1  0
 13 42  1  0
 16 43  1  0
 16 44  1  0
 17 45  1  0
 17 46  1  0
 19 47  1  0
 20 48  1  0
 22 49  1  0
 23 50  1  0
 23 51  1  0
M  END
>  <Energy>  (1185) 
2.9835715427544347

>  <compound_id>  (1185) 
44113

>  <target_id>  (1185) 
1

>  <reference_id>  (1185) 
115

>  <inspiration_ids>  (1185) 
[115, 27]

>  <energy_score>  (1185) 
-0.6290798044678922

>  <distance_score>  (1185) 
14.365683364640635

>  <path>  (1185) 
/opt/xchem-fragalysis-2/maxwin/BulkDock/SCRATCH/511016/C44113-P115/C44113-P115.minimised.mol

>  <scratch_subdir>  (1185) 
/opt/xchem-fragalysis-2/maxwin/BulkDock/SCRATCH/511016/C44113-P115

>  <fragmenstein_runtime>  (1185) 
35.18673515319824

>  <fragmenstein_outcome>  (1185) 
too moved

>  <fragmenstein_mode>  (1185) 
expansion

>  <fragmenstein_error>  (1185) 


$$$$
C44113-P27
     RDKit          3D

 51 52  0  0  0  0  0  0  0  0999 V2000
   12.1577   -5.1201   24.0981 C   0  0  0  0  0  0  0  0  0  0  0  0
   11.8300   -6.5084   24.6678 C   0  0  0  0  0  0  0  0  0  0  0  0
   10.8281   -7.4214   23.8727 C   0  0  0  0  0  0  0  0  0  0  0  0
   11.5776   -8.2447   22.8055 C   0  0  0  0  0  0  0  0  0  0  0  0
   12.6045   -7.4863   21.9687 C   0  0  0  0  0  0  0  0  0  0  0  0
    9.8185   -8.1805   24.8855 C   0  0  0  0  0  0  0  0  0  0  0  0
    9.4199   -7.4945   25.7892 O   0  0  0  0  0  0  0  0  0  0  0  0
    9.4677   -9.5436   24.5027 N   0  0  0  0  0  0  0  0  0  0  0  0
    8.4243  -10.4909   25.0552 C   0  0  0  0  0  0  0  0  0  0  0  0
    7.0185   -9.9150   25.0586 C   0  0  0  0  0  0  0  0  0  0  0  0
    6.3728  -11.1458   23.9972 C   0  0  0  0  0  0  0  0  0  0  0  0
    4.8337  -11.0585   22.7744 C   0  0  0  0  0  0  0  0  0  0  0  0
    3.1402  -11.9938   23.1231 N   0  0  0  0  0  0  0  0  0  0  0  0
    2.8406  -13.3669   23.8592 C   0  0  0  0  0  0  0  0  0  0  0  0
    3.6220  -14.1907   24.3003 O   0  0  0  0  0  0  0  0  0  0  0  0
    0.9116  -13.9181   24.1439 C   0  0  0  0  0  0  0  0  0  0  0  0
   -0.9363  -14.5955   24.4958 C   0  0  0  0  0  0  0  0  0  0  0  0
   -2.4378  -14.7756   25.4972 N   0  0  0  0  0  0  0  0  0  0  0  0
   -3.0834  -15.8960   26.0624 C   0  0  0  0  0  0  0  0  0  0  0  0
   -4.2154  -15.4866   26.7222 C   0  0  0  0  0  0  0  0  0  0  0  0
   -4.3891  -14.1624   26.5469 N   0  0  0  0  0  0  0  0  0  0  0  0
   -3.3667  -13.7708   25.8183 C   0  0  0  0  0  0  0  0  0  0  0  0
    7.8845  -11.7590   24.3203 C   0  0  0  0  0  0  0  0  0  0  0  0
   12.3334   -5.1117   23.0240 H   0  0  0  0  0  0  0  0  0  0  0  0
   11.3615   -4.4134   24.3420 H   0  0  0  0  0  0  0  0  0  0  0  0
   13.0644   -4.7389   24.5814 H   0  0  0  0  0  0  0  0  0  0  0  0
   11.4680   -6.3422   25.6891 H   0  0  0  0  0  0  0  0  0  0  0  0
   12.7686   -7.0620   24.8031 H   0  0  0  0  0  0  0  0  0  0  0  0
   10.1457   -6.7624   23.3263 H   0  0  0  0  0  0  0  0  0  0  0  0
   12.0939   -9.0751   23.3036 H   0  0  0  0  0  0  0  0  0  0  0  0
   10.8558   -8.6983   22.1199 H   0  0  0  0  0  0  0  0  0  0  0  0
   13.3815   -7.0249   22.5827 H   0  0  0  0  0  0  0  0  0  0  0  0
   12.1327   -6.7224   21.3479 H   0  0  0  0  0  0  0  0  0  0  0  0
   13.1406   -8.1957   21.3378 H   0  0  0  0  0  0  0  0  0  0  0  0
   10.0595   -9.8335   23.7407 H   0  0  0  0  0  0  0  0  0  0  0  0
    8.7641  -10.7558   26.0669 H   0  0  0  0  0  0  0  0  0  0  0  0
    6.9882   -8.8497   24.8291 H   0  0  0  0  0  0  0  0  0  0  0  0
    6.6689   -9.9557   26.1035 H   0  0  0  0  0  0  0  0  0  0  0  0
    5.8822  -11.8428   24.6829 H   0  0  0  0  0  0  0  0  0  0  0  0
    4.6279  -10.0760   23.1358 H   0  0  0  0  0  0  0  0  0  0  0  0
    5.0929  -11.1339   21.7136 H   0  0  0  0  0  0  0  0  0  0  0  0
    2.2768  -11.5125   22.9641 H   0  0  0  0  0  0  0  0  0  0  0  0
    1.2483  -14.6557   23.4509 H   0  0  0  0  0  0  0  0  0  0  0  0
    1.0945  -13.7003   25.2751 H   0  0  0  0  0  0  0  0  0  0  0  0
   -1.1358  -13.6685   25.0232 H   0  0  0  0  0  0  0  0  0  0  0  0
   -1.3742  -14.9335   23.5728 H   0  0  0  0  0  0  0  0  0  0  0  0
   -2.7019  -16.9074   26.0026 H   0  0  0  0  0  0  0  0  0  0  0  0
   -4.9150  -16.0882   27.2873 H   0  0  0  0  0  0  0  0  0  0  0  0
   -3.2309  -12.7441   25.5119 H   0  0  0  0  0  0  0  0  0  0  0  0
    7.8209  -12.5674   25.0672 H   0  0  0  0  0  0  0  0  0  0  0  0
    8.5251  -12.2064   23.5723 H   0  0  0  0  0  0  0  0  0  0  0  0
  1  2  1  0
  2  3  1  0
  3  4  1  0
  4  5  1  0
  3  6  1  0
  6  7  2  0
  6  8  1  0
  8  9  1  0
  9 10  1  0
 10 11  1  0
 11 12  1  0
 12 13  1  0
 13 14  1  0
 14 15  2  0
 14 16  1  0
 16 17  1  0
 17 18  1  0
 18 19  1  0
 19 20  2  0
 20 21  1  0
 21 22  2  0
 11 23  1  0
 23  9  1  0
 22 18  1  0
  1 24  1  0
  1 25  1  0
  1 26  1  0
  2 27  1  0
  2 28  1  0
  3 29  1  0
  4 30  1  0
  4 31  1  0
  5 32  1  0
  5 33  1  0
  5 34  1  0
  8 35  1  0
  9 36  1  0
 10 37  1  0
 10 38  1  0
 11 39  1  0
 12 40  1  0
 12 41  1  0
 13 42  1  0
 16 43  1  0
 16 44  1  0
 17 45  1  0
 17 46  1  0
 19 47  1  0
 20 48  1  0
 22 49  1  0
 23 50  1  0
 23 51  1  0
M  END
>  <Energy>  (1186) 
487.87536110679622

>  <compound_id>  (1186) 
44113

>  <target_id>  (1186) 
1

>  <reference_id>  (1186) 
27

>  <inspiration_ids>  (1186) 
[115, 27]

>  <energy_score>  (1186) 
484.2627097595557

>  <distance_score>  (1186) 
11.76587567725328

>  <path>  (1186) 
/opt/xchem-fragalysis-2/maxwin/BulkDock/SCRATCH/511016/C44113-P27/C44113-P27.minimised.mol

>  <scratch_subdir>  (1186) 
/opt/xchem-fragalysis-2/maxwin/BulkDock/SCRATCH/511016/C44113-P27

>  <fragmenstein_runtime>  (1186) 
49.34236454963684

>  <fragmenstein_outcome>  (1186) 
too moved

>  <fragmenstein_mode>  (1186) 
expansion

>  <fragmenstein_error>  (1186) 


$$$$
C44122-P115
     RDKit          3D

 48 49  0  0  0  0  0  0  0  0999 V2000
    6.1225   -6.5289   20.4363 C   0  0  0  0  0  0  0  0  0  0  0  0
    4.6331   -6.2842   20.2086 C   0  0  0  0  0  0  0  0  0  0  0  0
    3.8076   -7.3950   19.4686 C   0  0  0  0  0  0  0  0  0  0  0  0
    4.5526   -7.9264   18.2207 C   0  0  0  0  0  0  0  0  0  0  0  0
    4.9174   -6.8483   17.1973 C   0  0  0  0  0  0  0  0  0  0  0  0
    3.2293   -8.5536   20.4217 C   0  0  0  0  0  0  0  0  0  0  0  0
    3.7325   -8.7270   21.4969 O   0  0  0  0  0  0  0  0  0  0  0  0
    2.0839   -9.2158   19.7848 N   0  0  0  0  0  0  0  0  0  0  0  0
    1.1065  -10.2630   20.3207 C   0  0  0  0  0  0  0  0  0  0  0  0
   -0.0810  -10.1145   21.3690 C   0  0  0  0  0  0  0  0  0  0  0  0
   -0.5654  -11.2946   21.5195 N   0  0  0  0  0  0  0  0  0  0  0  0
   -1.8515  -11.7461   22.1021 C   0  0  0  0  0  0  0  0  0  0  0  0
   -2.8079  -11.1233   22.4635 O   0  0  0  0  0  0  0  0  0  0  0  0
   -1.9676  -13.3288   22.2556 C   0  0  0  0  0  0  0  0  0  0  0  0
   -2.0035  -13.9815   20.8793 C   0  0  0  0  0  0  0  0  0  0  0  0
   -3.2746  -13.6725   23.0942 C   0  0  0  0  0  0  0  0  0  0  0  0
   -3.5507  -15.0033   23.6609 N   0  0  0  0  0  0  0  0  0  0  0  0
   -4.1039  -16.0855   23.0169 C   0  0  0  0  0  0  0  0  0  0  0  0
   -4.4514  -16.9848   24.0055 C   0  0  0  0  0  0  0  0  0  0  0  0
   -4.1747  -16.4720   25.2429 N   0  0  0  0  0  0  0  0  0  0  0  0
   -3.6559  -15.2853   25.0087 C   0  0  0  0  0  0  0  0  0  0  0  0
    0.0158   -9.3938   20.8893 C   0  0  0  0  0  0  0  0  0  0  0  0
    6.2759   -7.4234   21.0475 H   0  0  0  0  0  0  0  0  0  0  0  0
    6.5675   -5.6784   20.9622 H   0  0  0  0  0  0  0  0  0  0  0  0
    6.6607   -6.6631   19.5008 H   0  0  0  0  0  0  0  0  0  0  0  0
    4.1627   -6.0915   21.1808 H   0  0  0  0  0  0  0  0  0  0  0  0
    4.5333   -5.3524   19.6383 H   0  0  0  0  0  0  0  0  0  0  0  0
    2.9034   -6.8761   19.1145 H   0  0  0  0  0  0  0  0  0  0  0  0
    3.9131   -8.6632   17.7192 H   0  0  0  0  0  0  0  0  0  0  0  0
    5.4498   -8.4771   18.5244 H   0  0  0  0  0  0  0  0  0  0  0  0
    5.7264   -6.2126   17.5549 H   0  0  0  0  0  0  0  0  0  0  0  0
    4.0525   -6.2172   16.9700 H   0  0  0  0  0  0  0  0  0  0  0  0
    5.2426   -7.3143   16.2625 H   0  0  0  0  0  0  0  0  0  0  0  0
    1.8839   -8.7567   18.9007 H   0  0  0  0  0  0  0  0  0  0  0  0
    0.8217  -10.9102   19.4811 H   0  0  0  0  0  0  0  0  0  0  0  0
    0.7838  -10.3208   22.2800 H   0  0  0  0  0  0  0  0  0  0  0  0
   -0.5271   -9.6128   22.5052 H   0  0  0  0  0  0  0  0  0  0  0  0
   -1.0993  -13.7047   22.7935 H   0  0  0  0  0  0  0  0  0  0  0  0
   -2.0532  -15.0713   20.9628 H   0  0  0  0  0  0  0  0  0  0  0  0
   -1.1068  -13.7338   20.3019 H   0  0  0  0  0  0  0  0  0  0  0  0
   -2.8695  -13.6392   20.3027 H   0  0  0  0  0  0  0  0  0  0  0  0
   -3.3069  -12.9956   23.9590 H   0  0  0  0  0  0  0  0  0  0  0  0
   -4.1591  -13.4310   22.4886 H   0  0  0  0  0  0  0  0  0  0  0  0
   -4.2073  -16.1268   21.9420 H   0  0  0  0  0  0  0  0  0  0  0  0
   -4.8939  -17.9654   23.8854 H   0  0  0  0  0  0  0  0  0  0  0  0
   -3.3521  -14.5789   25.7691 H   0  0  0  0  0  0  0  0  0  0  0  0
   -0.7306   -8.9998   20.0568 H   0  0  0  0  0  0  0  0  0  0  0  0
    0.3521   -8.4081   21.5342 H   0  0  0  0  0  0  0  0  0  0  0  0
  1  2  1  0
  2  3  1  0
  3  4  1  0
  4  5  1  0
  3  6  1  0
  6  7  2  0
  6  8  1  0
  8  9  1  0
  9 10  1  0
 10 11  1  0
 11 12  1  0
 12 13  2  0
 12 14  1  0
 14 15  1  0
 14 16  1  0
 16 17  1  0
 17 18  1  0
 18 19  2  0
 19 20  1  0
 20 21  2  0
 11 22  1  0
 22  9  1  0
 21 17  1  0
  1 23  1  0
  1 24  1  0
  1 25  1  0
  2 26  1  0
  2 27  1  0
  3 28  1  0
  4 29  1  0
  4 30  1  0
  5 31  1  0
  5 32  1  0
  5 33  1  0
  8 34  1  0
  9 35  1  0
 10 36  1  0
 10 37  1  0
 14 38  1  0
 15 39  1  0
 15 40  1  0
 15 41  1  0
 16 42  1  0
 16 43  1  0
 18 44  1  0
 19 45  1  0
 21 46  1  0
 22 47  1  0
 22 48  1  0
M  END
>  <Energy>  (1187) 
672.09979832731835

>  <compound_id>  (1187) 
44122

>  <target_id>  (1187) 
1

>  <reference_id>  (1187) 
115

>  <inspiration_ids>  (1187) 
[115, 27]

>  <energy_score>  (1187) 
630.1498054081279

>  <distance_score>  (1187) 
14.296827789251564

>  <path>  (1187) 
/opt/xchem-fragalysis-2/maxwin/BulkDock/SCRATCH/511016/C44122-P115/C44122-P115.minimised.mol

>  <scratch_subdir>  (1187) 
/opt/xchem-fragalysis-2/maxwin/BulkDock/SCRATCH/511016/C44122-P115

>  <fragmenstein_runtime>  (1187) 
38.374478340148926

>  <fragmenstein_outcome>  (1187) 
too moved

>  <fragmenstein_mode>  (1187) 
expansion

>  <fragmenstein_error>  (1187) 


$$$$
C44122-P27
     RDKit          3D

 48 49  0  0  0  0  0  0  0  0999 V2000
   14.2598   -5.8408   20.9981 C   0  0  0  0  0  0  0  0  0  0  0  0
   12.7929   -6.2683   21.1199 C   0  0  0  0  0  0  0  0  0  0  0  0
   11.6243   -5.5455   20.1818 C   0  0  0  0  0  0  0  0  0  0  0  0
   12.5588   -4.8702   18.8903 C   0  0  0  0  0  0  0  0  0  0  0  0
   13.3467   -3.5858   19.1734 C   0  0  0  0  0  0  0  0  0  0  0  0
    9.7348   -6.2904   20.2506 C   0  0  0  0  0  0  0  0  0  0  0  0
    9.7313   -7.5178   20.3713 O   0  0  0  0  0  0  0  0  0  0  0  0
    8.6050   -5.3265   20.2608 N   0  0  0  0  0  0  0  0  0  0  0  0
    7.0492   -5.5387   20.5392 C   0  0  0  0  0  0  0  0  0  0  0  0
    6.3659   -6.4419   19.5809 C   0  0  0  0  0  0  0  0  0  0  0  0
    5.2342   -6.9184   21.2463 N   0  0  0  0  0  0  0  0  0  0  0  0
    3.6336   -7.2295   21.1674 C   0  0  0  0  0  0  0  0  0  0  0  0
    2.9071   -7.3538   20.2711 O   0  0  0  0  0  0  0  0  0  0  0  0
    3.0370   -7.4816   22.6243 C   0  0  0  0  0  0  0  0  0  0  0  0
    4.1082   -7.6931   23.6803 C   0  0  0  0  0  0  0  0  0  0  0  0
    1.9982   -8.6936   22.5223 C   0  0  0  0  0  0  0  0  0  0  0  0
    0.9459   -9.0165   23.5044 N   0  0  0  0  0  0  0  0  0  0  0  0
    0.9293   -8.9064   24.8693 C   0  0  0  0  0  0  0  0  0  0  0  0
   -0.2652   -9.4496   25.2950 C   0  0  0  0  0  0  0  0  0  0  0  0
   -0.9546   -9.9655   24.2340 N   0  0  0  0  0  0  0  0  0  0  0  0
   -0.2515   -9.6284   23.1706 C   0  0  0  0  0  0  0  0  0  0  0  0
    6.2091   -6.8286   20.3663 C   0  0  0  0  0  0  0  0  0  0  0  0
   14.8491   -6.4069   21.7302 H   0  0  0  0  0  0  0  0  0  0  0  0
   14.3890   -4.7876   21.2595 H   0  0  0  0  0  0  0  0  0  0  0  0
   14.7146   -6.0480   20.0293 H   0  0  0  0  0  0  0  0  0  0  0  0
   12.6912   -7.3543   21.0864 H   0  0  0  0  0  0  0  0  0  0  0  0
   12.6162   -6.0231   22.1787 H   0  0  0  0  0  0  0  0  0  0  0  0
   11.6309   -4.6619   20.8030 H   0  0  0  0  0  0  0  0  0  0  0  0
   13.3167   -5.5766   18.5878 H   0  0  0  0  0  0  0  0  0  0  0  0
   11.9791   -4.6720   17.9778 H   0  0  0  0  0  0  0  0  0  0  0  0
   14.4244   -3.7801   19.1813 H   0  0  0  0  0  0  0  0  0  0  0  0
   13.0800   -3.1313   20.1284 H   0  0  0  0  0  0  0  0  0  0  0  0
   13.1868   -2.8656   18.3651 H   0  0  0  0  0  0  0  0  0  0  0  0
    8.9769   -4.3891   20.2224 H   0  0  0  0  0  0  0  0  0  0  0  0
    6.5226   -4.6609   20.9120 H   0  0  0  0  0  0  0  0  0  0  0  0
    6.6964   -7.1709   18.6974 H   0  0  0  0  0  0  0  0  0  0  0  0
    5.6150   -5.8070   18.9217 H   0  0  0  0  0  0  0  0  0  0  0  0
    2.4707   -6.5761   22.8768 H   0  0  0  0  0  0  0  0  0  0  0  0
    4.7548   -6.8127   23.7652 H   0  0  0  0  0  0  0  0  0  0  0  0
    4.7449   -8.5481   23.4334 H   0  0  0  0  0  0  0  0  0  0  0  0
    3.6735   -7.8492   24.6681 H   0  0  0  0  0  0  0  0  0  0  0  0
    1.4319   -8.5663   21.5906 H   0  0  0  0  0  0  0  0  0  0  0  0
    2.5656   -9.6253   22.3986 H   0  0  0  0  0  0  0  0  0  0  0  0
    1.7226   -8.4375   25.4305 H   0  0  0  0  0  0  0  0  0  0  0  0
   -0.6451   -9.5059   26.3072 H   0  0  0  0  0  0  0  0  0  0  0  0
   -0.5309   -9.8329   22.1434 H   0  0  0  0  0  0  0  0  0  0  0  0
    6.4092   -8.0939   20.1555 H   0  0  0  0  0  0  0  0  0  0  0  0
    6.9972   -7.3032   21.1836 H   0  0  0  0  0  0  0  0  0  0  0  0
  1  2  1  0
  2  3  1  0
  3  4  1  0
  4  5  1  0
  3  6  1  0
  6  7  2  0
  6  8  1  0
  8  9  1  0
  9 10  1  0
 10 11  1  0
 11 12  1  0
 12 13  2  0
 12 14  1  0
 14 15  1  0
 14 16  1  0
 16 17  1  0
 17 18  1  0
 18 19  2  0
 19 20  1  0
 20 21  2  0
 11 22  1  0
 22  9  1  0
 21 17  1  0
  1 23  1  0
  1 24  1  0
  1 25  1  0
  2 26  1  0
  2 27  1  0
  3 28  1  0
  4 29  1  0
  4 30  1  0
  5 31  1  0
  5 32  1  0
  5 33  1  0
  8 34  1  0
  9 35  1  0
 10 36  1  0
 10 37  1  0
 14 38  1  0
 15 39  1  0
 15 40  1  0
 15 41  1  0
 16 42  1  0
 16 43  1  0
 18 44  1  0
 19 45  1  0
 21 46  1  0
 22 47  1  0
 22 48  1  0
M  END
>  <Energy>  (1188) 
733.12992275284569

>  <compound_id>  (1188) 
44122

>  <target_id>  (1188) 
1

>  <reference_id>  (1188) 
27

>  <inspiration_ids>  (1188) 
[115, 27]

>  <energy_score>  (1188) 
691.1799298336683

>  <distance_score>  (1188) 
13.321137811992832

>  <path>  (1188) 
/opt/xchem-fragalysis-2/maxwin/BulkDock/SCRATCH/511016/C44122-P27/C44122-P27.minimised.mol

>  <scratch_subdir>  (1188) 
/opt/xchem-fragalysis-2/maxwin/BulkDock/SCRATCH/511016/C44122-P27

>  <fragmenstein_runtime>  (1188) 
40.4052414894104

>  <fragmenstein_outcome>  (1188) 
too moved

>  <fragmenstein_mode>  (1188) 
expansion

>  <fragmenstein_error>  (1188) 


$$$$
C73146-P115
     RDKit          3D

 46 47  0  0  0  0  0  0  0  0999 V2000
    9.7657  -10.7331   25.3345 C   0  0  0  0  0  0  0  0  0  0  0  0
   10.3572  -11.7886   26.2856 C   0  0  0  0  0  0  0  0  0  0  0  0
   10.6450  -13.2359   25.7241 C   0  0  0  0  0  0  0  0  0  0  0  0
   11.9597  -13.1835   24.8677 C   0  0  0  0  0  0  0  0  0  0  0  0
   12.1149  -12.0884   23.8042 C   0  0  0  0  0  0  0  0  0  0  0  0
   10.7705  -14.3351   26.9774 C   0  0  0  0  0  0  0  0  0  0  0  0
   11.5171  -14.0103   27.8645 O   0  0  0  0  0  0  0  0  0  0  0  0
    9.8668  -15.5071   26.8580 N   0  0  0  0  0  0  0  0  0  0  0  0
    9.5164  -16.6274   27.8733 C   0  0  0  0  0  0  0  0  0  0  0  0
   10.0327  -18.1433   27.8442 C   0  0  0  0  0  0  0  0  0  0  0  0
    8.9783  -18.8670   27.9915 N   0  0  0  0  0  0  0  0  0  0  0  0
    8.4893  -19.9837   29.1102 C   0  0  0  0  0  0  0  0  0  0  0  0
    8.9542  -20.3243   30.1281 O   0  0  0  0  0  0  0  0  0  0  0  0
    7.1360  -20.8133   28.5724 C   0  0  0  0  0  0  0  0  0  0  0  0
    7.6181  -22.0467   28.0098 O   0  0  0  0  0  0  0  0  0  0  0  0
    6.0186  -21.1448   29.6678 C   0  0  0  0  0  0  0  0  0  0  0  0
    4.5819  -21.5289   29.2796 C   0  0  0  0  0  0  0  0  0  0  0  0
    3.7476  -21.1051   28.2624 C   0  0  0  0  0  0  0  0  0  0  0  0
    2.5251  -21.6972   28.4865 N   0  0  0  0  0  0  0  0  0  0  0  0
    2.6338  -22.4470   29.6194 C   0  0  0  0  0  0  0  0  0  0  0  0
    3.8461  -22.3641   30.1228 N   0  0  0  0  0  0  0  0  0  0  0  0
   10.5907  -17.5598   28.2760 C   0  0  0  0  0  0  0  0  0  0  0  0
    8.9323  -11.1647   24.7747 H   0  0  0  0  0  0  0  0  0  0  0  0
    9.3719   -9.8976   25.9237 H   0  0  0  0  0  0  0  0  0  0  0  0
   10.4923  -10.3081   24.6445 H   0  0  0  0  0  0  0  0  0  0  0  0
   11.2680  -11.3858   26.7460 H   0  0  0  0  0  0  0  0  0  0  0  0
    9.6400  -11.9077   27.1091 H   0  0  0  0  0  0  0  0  0  0  0  0
    9.7987  -13.5329   25.0959 H   0  0  0  0  0  0  0  0  0  0  0  0
   12.8148  -13.1064   25.5524 H   0  0  0  0  0  0  0  0  0  0  0  0
   12.0856  -14.1560   24.3819 H   0  0  0  0  0  0  0  0  0  0  0  0
   12.4494  -11.1519   24.2597 H   0  0  0  0  0  0  0  0  0  0  0  0
   11.1834  -11.9209   23.2726 H   0  0  0  0  0  0  0  0  0  0  0  0
   12.8803  -12.3812   23.0780 H   0  0  0  0  0  0  0  0  0  0  0  0
    9.3133  -15.4189   25.9977 H   0  0  0  0  0  0  0  0  0  0  0  0
    9.1459  -16.1767   28.7893 H   0  0  0  0  0  0  0  0  0  0  0  0
   10.0132  -18.1954   26.6162 H   0  0  0  0  0  0  0  0  0  0  0  0
   10.8650  -19.0719   27.4972 H   0  0  0  0  0  0  0  0  0  0  0  0
    6.6708  -20.2974   27.7525 H   0  0  0  0  0  0  0  0  0  0  0  0
    8.0201  -22.5439   28.7467 H   0  0  0  0  0  0  0  0  0  0  0  0
    5.9333  -20.2764   30.3329 H   0  0  0  0  0  0  0  0  0  0  0  0
    6.4050  -21.9660   30.2866 H   0  0  0  0  0  0  0  0  0  0  0  0
    3.8997  -20.4417   27.4229 H   0  0  0  0  0  0  0  0  0  0  0  0
    1.6992  -21.5936   27.9128 H   0  0  0  0  0  0  0  0  0  0  0  0
    1.8130  -23.0219   30.0256 H   0  0  0  0  0  0  0  0  0  0  0  0
   10.8253  -17.5156   29.4234 H   0  0  0  0  0  0  0  0  0  0  0  0
   11.6584  -17.4578   27.7053 H   0  0  0  0  0  0  0  0  0  0  0  0
  1  2  1  0
  2  3  1  0
  3  4  1  0
  4  5  1  0
  3  6  1  0
  6  7  2  0
  6  8  1  0
  8  9  1  0
  9 10  1  0
 10 11  1  0
 11 12  1  0
 12 13  2  0
 12 14  1  0
 14 15  1  0
 14 16  1  0
 16 17  1  0
 17 18  2  0
 18 19  1  0
 19 20  1  0
 20 21  2  0
 11 22  1  0
 22  9  1  0
 21 17  1  0
  1 23  1  0
  1 24  1  0
  1 25  1  0
  2 26  1  0
  2 27  1  0
  3 28  1  0
  4 29  1  0
  4 30  1  0
  5 31  1  0
  5 32  1  0
  5 33  1  0
  8 34  1  0
  9 35  1  0
 10 36  1  0
 10 37  1  0
 14 38  1  0
 15 39  1  0
 16 40  1  0
 16 41  1  0
 18 42  1  0
 19 43  1  0
 20 44  1  0
 22 45  1  0
 22 46  1  0
M  END
>  <Energy>  (1189) 
702.35673932149405

>  <compound_id>  (1189) 
73146

>  <target_id>  (1189) 
1

>  <reference_id>  (1189) 
115

>  <inspiration_ids>  (1189) 
[115, 27]

>  <energy_score>  (1189) 
621.6929572691298

>  <distance_score>  (1189) 
16.045358638670926

>  <path>  (1189) 
/opt/xchem-fragalysis-2/maxwin/BulkDock/SCRATCH/511016/C73146-P115/C73146-P115.minimised.mol

>  <scratch_subdir>  (1189) 
/opt/xchem-fragalysis-2/maxwin/BulkDock/SCRATCH/511016/C73146-P115

>  <fragmenstein_runtime>  (1189) 
34.50652575492859

>  <fragmenstein_outcome>  (1189) 
too moved

>  <fragmenstein_mode>  (1189) 
expansion

>  <fragmenstein_error>  (1189) 


$$$$
C73146-P27
     RDKit          3D

 46 47  0  0  0  0  0  0  0  0999 V2000
   14.0313   -2.7760   17.9072 C   0  0  0  0  0  0  0  0  0  0  0  0
   12.8882   -3.6411   18.4393 C   0  0  0  0  0  0  0  0  0  0  0  0
   11.5533   -3.7824   17.4904 C   0  0  0  0  0  0  0  0  0  0  0  0
   11.5041   -2.6843   16.3188 C   0  0  0  0  0  0  0  0  0  0  0  0
   10.8365   -3.0271   15.0052 C   0  0  0  0  0  0  0  0  0  0  0  0
   10.7851   -5.3951   17.6299 C   0  0  0  0  0  0  0  0  0  0  0  0
   11.1311   -6.0923   16.5870 O   0  0  0  0  0  0  0  0  0  0  0  0
    9.7343   -6.2749   19.1406 N   0  0  0  0  0  0  0  0  0  0  0  0
    9.1597   -8.3796   19.4991 C   0  0  0  0  0  0  0  0  0  0  0  0
    7.6879   -9.7710   18.8150 C   0  0  0  0  0  0  0  0  0  0  0  0
    6.4558  -10.7653   20.1511 N   0  0  0  0  0  0  0  0  0  0  0  0
    5.5239  -12.4867   20.0978 C   0  0  0  0  0  0  0  0  0  0  0  0
    5.7137  -13.2650   19.2387 O   0  0  0  0  0  0  0  0  0  0  0  0
    3.9233  -13.2146   21.3703 C   0  0  0  0  0  0  0  0  0  0  0  0
    3.2118  -12.3437   22.6585 O   0  0  0  0  0  0  0  0  0  0  0  0
    3.5043  -14.8970   22.8170 C   0  0  0  0  0  0  0  0  0  0  0  0
    3.6445  -16.9175   23.4796 C   0  0  0  0  0  0  0  0  0  0  0  0
    3.3355  -18.6634   23.1158 C   0  0  0  0  0  0  0  0  0  0  0  0
    3.0114  -19.5542   24.2259 N   0  0  0  0  0  0  0  0  0  0  0  0
    2.9724  -18.8474   25.3478 C   0  0  0  0  0  0  0  0  0  0  0  0
    3.4477  -17.6416   25.1148 N   0  0  0  0  0  0  0  0  0  0  0  0
    7.9977  -10.1143   18.9826 C   0  0  0  0  0  0  0  0  0  0  0  0
   13.7271   -1.7342   17.7741 H   0  0  0  0  0  0  0  0  0  0  0  0
   14.8614   -2.7854   18.6218 H   0  0  0  0  0  0  0  0  0  0  0  0
   14.4155   -3.1673   16.9601 H   0  0  0  0  0  0  0  0  0  0  0  0
   13.2793   -4.6555   18.6031 H   0  0  0  0  0  0  0  0  0  0  0  0
   12.6638   -3.2813   19.4456 H   0  0  0  0  0  0  0  0  0  0  0  0
   12.2231   -4.3244   16.7771 H   0  0  0  0  0  0  0  0  0  0  0  0
   12.5349   -2.4508   16.0253 H   0  0  0  0  0  0  0  0  0  0  0  0
   11.1326   -1.7166   16.6550 H   0  0  0  0  0  0  0  0  0  0  0  0
   10.9297   -4.0785   14.7566 H   0  0  0  0  0  0  0  0  0  0  0  0
   11.3173   -2.4627   14.1984 H   0  0  0  0  0  0  0  0  0  0  0  0
    9.7843   -2.7424   14.9935 H   0  0  0  0  0  0  0  0  0  0  0  0
    9.6297   -5.5971   19.9101 H   0  0  0  0  0  0  0  0  0  0  0  0
   10.0080   -8.6188   20.1453 H   0  0  0  0  0  0  0  0  0  0  0  0
    6.7548   -8.8836   18.6168 H   0  0  0  0  0  0  0  0  0  0  0  0
    7.4780  -10.1370   17.4668 H   0  0  0  0  0  0  0  0  0  0  0  0
    4.2595  -12.1926   21.4812 H   0  0  0  0  0  0  0  0  0  0  0  0
    3.5438  -11.4381   22.6091 H   0  0  0  0  0  0  0  0  0  0  0  0
    4.0288  -14.6798   23.7852 H   0  0  0  0  0  0  0  0  0  0  0  0
    2.5694  -14.5633   23.2193 H   0  0  0  0  0  0  0  0  0  0  0  0
    3.3256  -19.2686   22.1918 H   0  0  0  0  0  0  0  0  0  0  0  0
    2.7141  -20.5009   24.0678 H   0  0  0  0  0  0  0  0  0  0  0  0
    2.6735  -19.2412   26.3067 H   0  0  0  0  0  0  0  0  0  0  0  0
    8.3412  -11.2613   19.5111 H   0  0  0  0  0  0  0  0  0  0  0  0
    8.8407  -10.8896   18.1925 H   0  0  0  0  0  0  0  0  0  0  0  0
  1  2  1  0
  2  3  1  0
  3  4  1  0
  4  5  1  0
  3  6  1  0
  6  7  2  0
  6  8  1  0
  8  9  1  0
  9 10  1  0
 10 11  1  0
 11 12  1  0
 12 13  2  0
 12 14  1  0
 14 15  1  0
 14 16  1  0
 16 17  1  0
 17 18  2  0
 18 19  1  0
 19 20  1  0
 20 21  2  0
 11 22  1  0
 22  9  1  0
 21 17  1  0
  1 23  1  0
  1 24  1  0
  1 25  1  0
  2 26  1  0
  2 27  1  0
  3 28  1  0
  4 29  1  0
  4 30  1  0
  5 31  1  0
  5 32  1  0
  5 33  1  0
  8 34  1  0
  9 35  1  0
 10 36  1  0
 10 37  1  0
 14 38  1  0
 15 39  1  0
 16 40  1  0
 16 41  1  0
 18 42  1  0
 19 43  1  0
 20 44  1  0
 22 45  1  0
 22 46  1  0
M  END
>  <Energy>  (1190) 
2329.9136670920043

>  <compound_id>  (1190) 
73146

>  <target_id>  (1190) 
1

>  <reference_id>  (1190) 
27

>  <inspiration_ids>  (1190) 
[115, 27]

>  <energy_score>  (1190) 
2249.249885039659

>  <distance_score>  (1190) 
11.349297883981398

>  <path>  (1190) 
/opt/xchem-fragalysis-2/maxwin/BulkDock/SCRATCH/511016/C73146-P27/C73146-P27.minimised.mol

>  <scratch_subdir>  (1190) 
/opt/xchem-fragalysis-2/maxwin/BulkDock/SCRATCH/511016/C73146-P27

>  <fragmenstein_runtime>  (1190) 
36.558350801467896

>  <fragmenstein_outcome>  (1190) 
too moved

>  <fragmenstein_mode>  (1190) 
expansion

>  <fragmenstein_error>  (1190) 


$$$$
C44131-P115
     RDKit          3D

 49 51  0  0  0  0  0  0  0  0999 V2000
    3.6737   -5.3079   16.0918 C   0  0  0  0  0  0  0  0  0  0  0  0
    4.2801   -6.7060   16.0902 C   0  0  0  0  0  0  0  0  0  0  0  0
    4.0663   -7.5713   17.3583 C   0  0  0  0  0  0  0  0  0  0  0  0
    4.3900   -6.7999   18.6565 C   0  0  0  0  0  0  0  0  0  0  0  0
    5.8609   -6.5004   18.8194 C   0  0  0  0  0  0  0  0  0  0  0  0
    2.6594   -8.2631   17.5216 C   0  0  0  0  0  0  0  0  0  0  0  0
    1.6679   -7.7724   17.0662 O   0  0  0  0  0  0  0  0  0  0  0  0
    2.8371   -9.4437   18.3542 N   0  0  0  0  0  0  0  0  0  0  0  0
    1.8852  -10.3143   18.9553 C   0  0  0  0  0  0  0  0  0  0  0  0
    1.7245  -10.2871   20.3904 C   0  0  0  0  0  0  0  0  0  0  0  0
    0.2319  -10.8007   19.6111 C   0  0  0  0  0  0  0  0  0  0  0  0
    1.6223  -11.7213   18.8143 C   0  0  0  0  0  0  0  0  0  0  0  0
   -0.3586  -11.9441   20.0744 N   0  0  0  0  0  0  0  0  0  0  0  0
   -1.6160  -12.1505   20.7987 C   0  0  0  0  0  0  0  0  0  0  0  0
   -2.5014  -11.3875   21.0628 O   0  0  0  0  0  0  0  0  0  0  0  0
   -1.7633  -13.6401   21.3220 C   0  0  0  0  0  0  0  0  0  0  0  0
   -3.1909  -13.9156   21.9055 C   0  0  0  0  0  0  0  0  0  0  0  0
   -3.4722  -15.1773   22.7409 C   0  0  0  0  0  0  0  0  0  0  0  0
   -3.4329  -15.2797   24.0628 N   0  0  0  0  0  0  0  0  0  0  0  0
   -4.0357  -16.4762   24.3926 C   0  0  0  0  0  0  0  0  0  0  0  0
   -4.4260  -17.1404   23.2587 C   0  0  0  0  0  0  0  0  0  0  0  0
   -4.0518  -16.3225   22.2206 N   0  0  0  0  0  0  0  0  0  0  0  0
    0.3001  -10.3383   19.0493 C   0  0  0  0  0  0  0  0  0  0  0  0
    2.5849   -5.3637   16.1887 H   0  0  0  0  0  0  0  0  0  0  0  0
    3.8916   -4.7945   15.1511 H   0  0  0  0  0  0  0  0  0  0  0  0
    4.0434   -4.6883   16.9036 H   0  0  0  0  0  0  0  0  0  0  0  0
    5.3557   -6.6081   15.9129 H   0  0  0  0  0  0  0  0  0  0  0  0
    3.8781   -7.2520   15.2276 H   0  0  0  0  0  0  0  0  0  0  0  0
    4.7900   -8.3930   17.2542 H   0  0  0  0  0  0  0  0  0  0  0  0
    4.0707   -7.3804   19.5313 H   0  0  0  0  0  0  0  0  0  0  0  0
    3.8069   -5.8744   18.7094 H   0  0  0  0  0  0  0  0  0  0  0  0
    6.0120   -5.7907   19.6375 H   0  0  0  0  0  0  0  0  0  0  0  0
    6.2787   -6.0871   17.9076 H   0  0  0  0  0  0  0  0  0  0  0  0
    6.3932   -7.4221   19.0666 H   0  0  0  0  0  0  0  0  0  0  0  0
    3.8284   -9.6109   18.4847 H   0  0  0  0  0  0  0  0  0  0  0  0
    2.3473  -10.9614   20.9765 H   0  0  0  0  0  0  0  0  0  0  0  0
    1.7192   -9.2813   20.8308 H   0  0  0  0  0  0  0  0  0  0  0  0
   -0.1689  -10.3241   20.7373 H   0  0  0  0  0  0  0  0  0  0  0  0
    2.1921  -12.4457   19.4032 H   0  0  0  0  0  0  0  0  0  0  0  0
    1.4355  -12.1039   17.8036 H   0  0  0  0  0  0  0  0  0  0  0  0
   -1.5570  -14.3297   20.4971 H   0  0  0  0  0  0  0  0  0  0  0  0
   -1.0180  -13.7982   22.1051 H   0  0  0  0  0  0  0  0  0  0  0  0
   -3.4714  -13.0751   22.5543 H   0  0  0  0  0  0  0  0  0  0  0  0
   -3.9071  -13.8933   21.0731 H   0  0  0  0  0  0  0  0  0  0  0  0
   -4.1432  -16.7865   25.4237 H   0  0  0  0  0  0  0  0  0  0  0  0
   -4.9172  -18.0891   23.0958 H   0  0  0  0  0  0  0  0  0  0  0  0
   -4.2288  -16.4919   21.2401 H   0  0  0  0  0  0  0  0  0  0  0  0
   -0.2560   -9.1893   19.1991 H   0  0  0  0  0  0  0  0  0  0  0  0
   -0.1391  -10.4904   17.8925 H   0  0  0  0  0  0  0  0  0  0  0  0
  1  2  1  0
  2  3  1  0
  3  4  1  0
  4  5  1  0
  3  6  1  0
  6  7  2  0
  6  8  1  0
  8  9  1  0
  9 10  1  0
 10 11  1  0
 11 12  1  0
 11 13  1  0
 13 14  1  0
 14 15  2  0
 14 16  1  0
 16 17  1  0
 17 18  1  0
 18 19  2  0
 19 20  1  0
 20 21  2  0
 21 22  1  0
 13 23  1  0
 12  9  1  0
 22 18  1  0
 23  9  1  0
  1 24  1  0
  1 25  1  0
  1 26  1  0
  2 27  1  0
  2 28  1  0
  3 29  1  0
  4 30  1  0
  4 31  1  0
  5 32  1  0
  5 33  1  0
  5 34  1  0
  8 35  1  0
 10 36  1  0
 10 37  1  0
 11 38  1  0
 12 39  1  0
 12 40  1  0
 16 41  1  0
 16 42  1  0
 17 43  1  0
 17 44  1  0
 20 45  1  0
 21 46  1  0
 22 47  1  0
 23 48  1  0
 23 49  1  0
M  END
>  <Energy>  (1191) 
725.653850478761

>  <compound_id>  (1191) 
44131

>  <target_id>  (1191) 
1

>  <reference_id>  (1191) 
115

>  <inspiration_ids>  (1191) 
[115, 27]

>  <energy_score>  (1191) 
668.1945699079164

>  <distance_score>  (1191) 
14.132952234860529

>  <path>  (1191) 
/opt/xchem-fragalysis-2/maxwin/BulkDock/SCRATCH/511016/C44131-P115/C44131-P115.minimised.mol

>  <scratch_subdir>  (1191) 
/opt/xchem-fragalysis-2/maxwin/BulkDock/SCRATCH/511016/C44131-P115

>  <fragmenstein_runtime>  (1191) 
41.957056522369385

>  <fragmenstein_outcome>  (1191) 
too moved

>  <fragmenstein_mode>  (1191) 
expansion

>  <fragmenstein_error>  (1191) 


$$$$
C44131-P27
     RDKit          3D

 49 51  0  0  0  0  0  0  0  0999 V2000
   12.8147   -5.4883   24.1907 C   0  0  0  0  0  0  0  0  0  0  0  0
   12.3217   -6.8500   24.6916 C   0  0  0  0  0  0  0  0  0  0  0  0
   12.1707   -8.0281   23.6964 C   0  0  0  0  0  0  0  0  0  0  0  0
   13.4006   -8.2016   22.7553 C   0  0  0  0  0  0  0  0  0  0  0  0
   13.6700   -7.1253   21.7058 C   0  0  0  0  0  0  0  0  0  0  0  0
   11.8045   -9.4020   24.4368 C   0  0  0  0  0  0  0  0  0  0  0  0
   12.5891  -10.3051   24.3597 O   0  0  0  0  0  0  0  0  0  0  0  0
   10.4694   -9.3491   25.0329 N   0  0  0  0  0  0  0  0  0  0  0  0
    9.7269  -10.3404   25.7944 C   0  0  0  0  0  0  0  0  0  0  0  0
    9.9877  -11.7328   26.0692 C   0  0  0  0  0  0  0  0  0  0  0  0
    8.3474  -11.5579   25.4603 C   0  0  0  0  0  0  0  0  0  0  0  0
    8.5880  -10.2148   26.6632 C   0  0  0  0  0  0  0  0  0  0  0  0
    7.2862  -12.2628   26.0185 N   0  0  0  0  0  0  0  0  0  0  0  0
    6.3870  -11.9286   27.1278 C   0  0  0  0  0  0  0  0  0  0  0  0
    6.2599  -10.9140   27.7562 O   0  0  0  0  0  0  0  0  0  0  0  0
    5.2867  -13.1684   27.4732 C   0  0  0  0  0  0  0  0  0  0  0  0
    4.0556  -14.4809   26.9198 C   0  0  0  0  0  0  0  0  0  0  0  0
    3.3281  -15.8574   27.7117 C   0  0  0  0  0  0  0  0  0  0  0  0
    2.1704  -15.5474   28.3161 N   0  0  0  0  0  0  0  0  0  0  0  0
    1.3372  -16.5548   28.6281 C   0  0  0  0  0  0  0  0  0  0  0  0
    1.5410  -17.2559   27.5372 C   0  0  0  0  0  0  0  0  0  0  0  0
    2.8864  -17.0984   27.1806 N   0  0  0  0  0  0  0  0  0  0  0  0
    8.5271  -11.0958   24.9644 C   0  0  0  0  0  0  0  0  0  0  0  0
   12.5836   -4.7226   24.9398 H   0  0  0  0  0  0  0  0  0  0  0  0
   13.9028   -5.4902   24.0810 H   0  0  0  0  0  0  0  0  0  0  0  0
   12.3534   -5.1788   23.2549 H   0  0  0  0  0  0  0  0  0  0  0  0
   12.9933   -7.1690   25.5000 H   0  0  0  0  0  0  0  0  0  0  0  0
   11.3538   -6.6896   25.1823 H   0  0  0  0  0  0  0  0  0  0  0  0
   11.3148   -7.8675   23.0429 H   0  0  0  0  0  0  0  0  0  0  0  0
   14.3026   -8.3326   23.3664 H   0  0  0  0  0  0  0  0  0  0  0  0
   13.2731   -9.1456   22.2084 H   0  0  0  0  0  0  0  0  0  0  0  0
   14.4140   -7.5059   20.9988 H   0  0  0  0  0  0  0  0  0  0  0  0
   14.1098   -6.2216   22.1247 H   0  0  0  0  0  0  0  0  0  0  0  0
   12.7670   -6.8592   21.1602 H   0  0  0  0  0  0  0  0  0  0  0  0
   10.0573   -8.4427   24.8423 H   0  0  0  0  0  0  0  0  0  0  0  0
   10.7112  -12.2317   25.4126 H   0  0  0  0  0  0  0  0  0  0  0  0
   10.1055  -12.0739   27.1030 H   0  0  0  0  0  0  0  0  0  0  0  0
    8.6649  -12.8070   25.2497 H   0  0  0  0  0  0  0  0  0  0  0  0
    7.9678   -9.3183   26.5434 H   0  0  0  0  0  0  0  0  0  0  0  0
    8.7306  -10.4623   27.7205 H   0  0  0  0  0  0  0  0  0  0  0  0
    5.2840  -13.0611   26.3774 H   0  0  0  0  0  0  0  0  0  0  0  0
    4.7750  -12.6477   28.2668 H   0  0  0  0  0  0  0  0  0  0  0  0
    4.3054  -14.7541   25.8805 H   0  0  0  0  0  0  0  0  0  0  0  0
    3.1065  -13.9651   26.8829 H   0  0  0  0  0  0  0  0  0  0  0  0
    0.6283  -16.4939   29.4303 H   0  0  0  0  0  0  0  0  0  0  0  0
    0.8757  -17.9740   27.1360 H   0  0  0  0  0  0  0  0  0  0  0  0
    3.1599  -17.4964   26.3021 H   0  0  0  0  0  0  0  0  0  0  0  0
    8.9058  -11.5277   23.8134 H   0  0  0  0  0  0  0  0  0  0  0  0
    7.7966  -10.1909   24.4761 H   0  0  0  0  0  0  0  0  0  0  0  0
  1  2  1  0
  2  3  1  0
  3  4  1  0
  4  5  1  0
  3  6  1  0
  6  7  2  0
  6  8  1  0
  8  9  1  0
  9 10  1  0
 10 11  1  0
 11 12  1  0
 11 13  1  0
 13 14  1  0
 14 15  2  0
 14 16  1  0
 16 17  1  0
 17 18  1  0
 18 19  2  0
 19 20  1  0
 20 21  2  0
 21 22  1  0
 13 23  1  0
 12  9  1  0
 22 18  1  0
 23  9  1  0
  1 24  1  0
  1 25  1  0
  1 26  1  0
  2 27  1  0
  2 28  1  0
  3 29  1  0
  4 30  1  0
  4 31  1  0
  5 32  1  0
  5 33  1  0
  5 34  1  0
  8 35  1  0
 10 36  1  0
 10 37  1  0
 11 38  1  0
 12 39  1  0
 12 40  1  0
 16 41  1  0
 16 42  1  0
 17 43  1  0
 17 44  1  0
 20 45  1  0
 21 46  1  0
 22 47  1  0
 23 48  1  0
 23 49  1  0
M  END
>  <Energy>  (1192) 
918.40569706086887

>  <compound_id>  (1192) 
44131

>  <target_id>  (1192) 
1

>  <reference_id>  (1192) 
27

>  <inspiration_ids>  (1192) 
[115, 27]

>  <energy_score>  (1192) 
860.9464164900238

>  <distance_score>  (1192) 
12.631354689613934

>  <path>  (1192) 
/opt/xchem-fragalysis-2/maxwin/BulkDock/SCRATCH/511016/C44131-P27/C44131-P27.minimised.mol

>  <scratch_subdir>  (1192) 
/opt/xchem-fragalysis-2/maxwin/BulkDock/SCRATCH/511016/C44131-P27

>  <fragmenstein_runtime>  (1192) 
34.18274259567261

>  <fragmenstein_outcome>  (1192) 
too moved

>  <fragmenstein_mode>  (1192) 
expansion

>  <fragmenstein_error>  (1192) 


$$$$
C44106-P115
     RDKit          3D

 52 54  0  0  0  0  0  0  0  0999 V2000
   13.3128   -3.5566   18.9719 C   0  0  0  0  0  0  0  0  0  0  0  0
   12.5833   -4.8394   18.5757 C   0  0  0  0  0  0  0  0  0  0  0  0
   10.9150   -4.9502   17.7704 C   0  0  0  0  0  0  0  0  0  0  0  0
   11.4120   -3.6768   16.6811 C   0  0  0  0  0  0  0  0  0  0  0  0
   10.8595   -3.3401   15.2992 C   0  0  0  0  0  0  0  0  0  0  0  0
    9.6541   -5.7665   19.2559 C   0  0  0  0  0  0  0  0  0  0  0  0
   10.2628   -5.8284   20.3112 O   0  0  0  0  0  0  0  0  0  0  0  0
    7.6765   -6.2180   18.9741 N   0  0  0  0  0  0  0  0  0  0  0  0
    6.5714   -6.8282   19.9844 C   0  0  0  0  0  0  0  0  0  0  0  0
    6.3317   -8.2016   20.4511 C   0  0  0  0  0  0  0  0  0  0  0  0
    4.9338   -7.1111   20.5444 C   0  0  0  0  0  0  0  0  0  0  0  0
    5.3866   -7.0576   19.0626 C   0  0  0  0  0  0  0  0  0  0  0  0
    4.2144   -7.8621   21.5122 N   0  0  0  0  0  0  0  0  0  0  0  0
    3.9782   -7.7458   22.8864 C   0  0  0  0  0  0  0  0  0  0  0  0
    4.6625   -8.2213   23.7800 O   0  0  0  0  0  0  0  0  0  0  0  0
    2.6474   -7.0321   23.2786 C   0  0  0  0  0  0  0  0  0  0  0  0
    1.6982   -8.0070   24.1004 C   0  0  0  0  0  0  0  0  0  0  0  0
    0.3625   -7.4073   24.6396 C   0  0  0  0  0  0  0  0  0  0  0  0
   -0.5963   -8.3041   25.3259 N   0  0  0  0  0  0  0  0  0  0  0  0
   -1.9131   -8.5268   24.9578 C   0  0  0  0  0  0  0  0  0  0  0  0
   -2.4805   -9.2646   25.9754 C   0  0  0  0  0  0  0  0  0  0  0  0
   -1.5541   -9.4982   26.9528 N   0  0  0  0  0  0  0  0  0  0  0  0
   -0.4458   -8.9047   26.5552 C   0  0  0  0  0  0  0  0  0  0  0  0
    5.3269   -6.3466   20.9567 C   0  0  0  0  0  0  0  0  0  0  0  0
   14.3546   -3.8119   19.2049 H   0  0  0  0  0  0  0  0  0  0  0  0
   13.3632   -2.7967   18.1937 H   0  0  0  0  0  0  0  0  0  0  0  0
   12.9074   -3.1560   19.9002 H   0  0  0  0  0  0  0  0  0  0  0  0
   13.2559   -5.3038   17.8519 H   0  0  0  0  0  0  0  0  0  0  0  0
   12.5644   -5.4492   19.4852 H   0  0  0  0  0  0  0  0  0  0  0  0
   11.0673   -5.5944   16.8818 H   0  0  0  0  0  0  0  0  0  0  0  0
   12.4235   -4.0084   16.3904 H   0  0  0  0  0  0  0  0  0  0  0  0
   11.6187   -2.7291   17.1705 H   0  0  0  0  0  0  0  0  0  0  0  0
    9.9855   -2.6889   15.2974 H   0  0  0  0  0  0  0  0  0  0  0  0
   10.6695   -4.2276   14.7105 H   0  0  0  0  0  0  0  0  0  0  0  0
   11.6233   -2.7766   14.7467 H   0  0  0  0  0  0  0  0  0  0  0  0
    7.3754   -6.0001   17.9861 H   0  0  0  0  0  0  0  0  0  0  0  0
    6.3173   -9.0529   19.7635 H   0  0  0  0  0  0  0  0  0  0  0  0
    6.7250   -8.5104   21.4217 H   0  0  0  0  0  0  0  0  0  0  0  0
    3.9076   -7.2427   19.9683 H   0  0  0  0  0  0  0  0  0  0  0  0
    5.3262   -7.9375   18.4092 H   0  0  0  0  0  0  0  0  0  0  0  0
    5.0474   -6.1856   18.4836 H   0  0  0  0  0  0  0  0  0  0  0  0
    2.8984   -6.1539   23.8823 H   0  0  0  0  0  0  0  0  0  0  0  0
    2.1269   -6.6950   22.3764 H   0  0  0  0  0  0  0  0  0  0  0  0
    1.4676   -8.8748   23.4698 H   0  0  0  0  0  0  0  0  0  0  0  0
    2.2597   -8.3912   24.9599 H   0  0  0  0  0  0  0  0  0  0  0  0
   -0.1865   -6.9551   23.8054 H   0  0  0  0  0  0  0  0  0  0  0  0
    0.5827   -6.6101   25.3594 H   0  0  0  0  0  0  0  0  0  0  0  0
   -2.3241   -8.1252   24.0427 H   0  0  0  0  0  0  0  0  0  0  0  0
   -3.4968   -9.6270   26.0597 H   0  0  0  0  0  0  0  0  0  0  0  0
    0.4841   -8.8718   27.1097 H   0  0  0  0  0  0  0  0  0  0  0  0
    4.7681   -5.3093   20.7791 H   0  0  0  0  0  0  0  0  0  0  0  0
    5.8246   -6.0734   21.9642 H   0  0  0  0  0  0  0  0  0  0  0  0
  1  2  1  0
  2  3  1  0
  3  4  1  0
  4  5  1  0
  3  6  1  0
  6  7  2  0
  6  8  1  0
  8  9  1  0
  9 10  1  0
 10 11  1  0
 11 12  1  0
 11 13  1  0
 13 14  1  0
 14 15  2  0
 14 16  1  0
 16 17  1  0
 17 18  1  0
 18 19  1  0
 19 20  1  0
 20 21  2  0
 21 22  1  0
 22 23  2  0
 13 24  1  0
 12  9  1  0
 23 19  1  0
 24  9  1  0
  1 25  1  0
  1 26  1  0
  1 27  1  0
  2 28  1  0
  2 29  1  0
  3 30  1  0
  4 31  1  0
  4 32  1  0
  5 33  1  0
  5 34  1  0
  5 35  1  0
  8 36  1  0
 10 37  1  0
 10 38  1  0
 11 39  1  0
 12 40  1  0
 12 41  1  0
 16 42  1  0
 16 43  1  0
 17 44  1  0
 17 45  1  0
 18 46  1  0
 18 47  1  0
 20 48  1  0
 21 49  1  0
 23 50  1  0
 24 51  1  0
 24 52  1  0
M  END
>  <Energy>  (1193) 
915.71440825599871

>  <compound_id>  (1193) 
44106

>  <target_id>  (1193) 
1

>  <reference_id>  (1193) 
115

>  <inspiration_ids>  (1193) 
[115, 27]

>  <energy_score>  (1193) 
855.6105869308296

>  <distance_score>  (1193) 
12.867576486630801

>  <path>  (1193) 
/opt/xchem-fragalysis-2/maxwin/BulkDock/SCRATCH/511016/C44106-P115/C44106-P115.minimised.mol

>  <scratch_subdir>  (1193) 
/opt/xchem-fragalysis-2/maxwin/BulkDock/SCRATCH/511016/C44106-P115

>  <fragmenstein_runtime>  (1193) 
47.96702432632446

>  <fragmenstein_outcome>  (1193) 
too moved

>  <fragmenstein_mode>  (1193) 
expansion

>  <fragmenstein_error>  (1193) 


$$$$
C44106-P27
     RDKit          3D

 52 54  0  0  0  0  0  0  0  0999 V2000
   10.5787   -9.6225   21.7446 C   0  0  0  0  0  0  0  0  0  0  0  0
   10.1140  -11.0753   21.5998 C   0  0  0  0  0  0  0  0  0  0  0  0
    8.5813  -11.3526   21.7673 C   0  0  0  0  0  0  0  0  0  0  0  0
    7.8269  -11.1439   20.4252 C   0  0  0  0  0  0  0  0  0  0  0  0
    7.7624   -9.7221   19.8903 C   0  0  0  0  0  0  0  0  0  0  0  0
    8.2752  -12.8371   22.3388 C   0  0  0  0  0  0  0  0  0  0  0  0
    9.0825  -13.7104   22.1900 O   0  0  0  0  0  0  0  0  0  0  0  0
    6.9650  -12.8534   22.9819 N   0  0  0  0  0  0  0  0  0  0  0  0
    6.1801  -13.9699   23.5645 C   0  0  0  0  0  0  0  0  0  0  0  0
    6.0170  -13.2411   24.9068 C   0  0  0  0  0  0  0  0  0  0  0  0
    4.9462  -14.3458   24.8432 C   0  0  0  0  0  0  0  0  0  0  0  0
    4.7469  -14.0181   23.2608 C   0  0  0  0  0  0  0  0  0  0  0  0
    3.9643  -14.6233   25.9115 N   0  0  0  0  0  0  0  0  0  0  0  0
    3.6862  -15.9864   27.0588 C   0  0  0  0  0  0  0  0  0  0  0  0
    4.1502  -16.1073   28.1471 O   0  0  0  0  0  0  0  0  0  0  0  0
    2.4325  -17.3928   26.7300 C   0  0  0  0  0  0  0  0  0  0  0  0
    0.5117  -17.7529   27.2373 C   0  0  0  0  0  0  0  0  0  0  0  0
   -1.3071  -18.4172   26.8079 C   0  0  0  0  0  0  0  0  0  0  0  0
   -2.2188  -20.0235   27.0880 N   0  0  0  0  0  0  0  0  0  0  0  0
   -4.1252  -20.2791   26.1957 C   0  0  0  0  0  0  0  0  0  0  0  0
   -5.0967  -21.5413   27.3321 C   0  0  0  0  0  0  0  0  0  0  0  0
   -3.8983  -21.8113   29.0400 N   0  0  0  0  0  0  0  0  0  0  0  0
   -2.5194  -20.5422   29.0857 C   0  0  0  0  0  0  0  0  0  0  0  0
    5.5370  -15.0657   24.7599 C   0  0  0  0  0  0  0  0  0  0  0  0
   11.6729   -9.5913   21.7770 H   0  0  0  0  0  0  0  0  0  0  0  0
   10.2638   -8.9994   20.9121 H   0  0  0  0  0  0  0  0  0  0  0  0
   10.2123   -9.1974   22.6829 H   0  0  0  0  0  0  0  0  0  0  0  0
   10.4619  -11.4722   20.6383 H   0  0  0  0  0  0  0  0  0  0  0  0
   10.6460  -11.6491   22.3697 H   0  0  0  0  0  0  0  0  0  0  0  0
    8.1937  -10.6499   22.5170 H   0  0  0  0  0  0  0  0  0  0  0  0
    6.7949  -11.4974   20.5448 H   0  0  0  0  0  0  0  0  0  0  0  0
    8.2698  -11.7938   19.6596 H   0  0  0  0  0  0  0  0  0  0  0  0
    7.1334   -9.6885   18.9947 H   0  0  0  0  0  0  0  0  0  0  0  0
    8.7493   -9.3721   19.6093 H   0  0  0  0  0  0  0  0  0  0  0  0
    7.3257   -9.0486   20.6307 H   0  0  0  0  0  0  0  0  0  0  0  0
    6.5191  -11.9500   22.8492 H   0  0  0  0  0  0  0  0  0  0  0  0
    5.7054  -12.1899   24.8668 H   0  0  0  0  0  0  0  0  0  0  0  0
    6.8703  -13.3091   25.5972 H   0  0  0  0  0  0  0  0  0  0  0  0
    4.0834  -13.5911   24.7472 H   0  0  0  0  0  0  0  0  0  0  0  0
    4.4067  -14.8200   22.5965 H   0  0  0  0  0  0  0  0  0  0  0  0
    4.3010  -13.0676   22.9317 H   0  0  0  0  0  0  0  0  0  0  0  0
    2.6716  -17.7549   25.7053 H   0  0  0  0  0  0  0  0  0  0  0  0
    3.0122  -18.2037   27.0871 H   0  0  0  0  0  0  0  0  0  0  0  0
    0.5667  -18.5628   26.5428 H   0  0  0  0  0  0  0  0  0  0  0  0
    0.6387  -17.7681   28.2818 H   0  0  0  0  0  0  0  0  0  0  0  0
   -2.0282  -17.7086   27.2390 H   0  0  0  0  0  0  0  0  0  0  0  0
   -1.6009  -18.2983   25.7872 H   0  0  0  0  0  0  0  0  0  0  0  0
   -4.2570  -19.9839   25.1389 H   0  0  0  0  0  0  0  0  0  0  0  0
   -5.9825  -22.1551   27.2301 H   0  0  0  0  0  0  0  0  0  0  0  0
   -1.5115  -20.8732   29.4815 H   0  0  0  0  0  0  0  0  0  0  0  0
    5.2649  -16.0340   24.1197 H   0  0  0  0  0  0  0  0  0  0  0  0
    6.4812  -15.4565   25.3096 H   0  0  0  0  0  0  0  0  0  0  0  0
  1  2  1  0
  2  3  1  0
  3  4  1  0
  4  5  1  0
  3  6  1  0
  6  7  2  0
  6  8  1  0
  8  9  1  0
  9 10  1  0
 10 11  1  0
 11 12  1  0
 11 13  1  0
 13 14  1  0
 14 15  2  0
 14 16  1  0
 16 17  1  0
 17 18  1  0
 18 19  1  0
 19 20  1  0
 20 21  2  0
 21 22  1  0
 22 23  2  0
 13 24  1  0
 12  9  1  0
 23 19  1  0
 24  9  1  0
  1 25  1  0
  1 26  1  0
  1 27  1  0
  2 28  1  0
  2 29  1  0
  3 30  1  0
  4 31  1  0
  4 32  1  0
  5 33  1  0
  5 34  1  0
  5 35  1  0
  8 36  1  0
 10 37  1  0
 10 38  1  0
 11 39  1  0
 12 40  1  0
 12 41  1  0
 16 42  1  0
 16 43  1  0
 17 44  1  0
 17 45  1  0
 18 46  1  0
 18 47  1  0
 20 48  1  0
 21 49  1  0
 23 50  1  0
 24 51  1  0
 24 52  1  0
M  END
>  <Energy>  (1194) 
1707.1354476927575

>  <compound_id>  (1194) 
44106

>  <target_id>  (1194) 
1

>  <reference_id>  (1194) 
27

>  <inspiration_ids>  (1194) 
[115, 27]

>  <energy_score>  (1194) 
1647.0316263676123

>  <distance_score>  (1194) 
13.013646180752392

>  <path>  (1194) 
/opt/xchem-fragalysis-2/maxwin/BulkDock/SCRATCH/511016/C44106-P27/C44106-P27.minimised.mol

>  <scratch_subdir>  (1194) 
/opt/xchem-fragalysis-2/maxwin/BulkDock/SCRATCH/511016/C44106-P27

>  <fragmenstein_runtime>  (1194) 
27.53907871246338

>  <fragmenstein_outcome>  (1194) 
too moved

>  <fragmenstein_mode>  (1194) 
expansion

>  <fragmenstein_error>  (1194) 


$$$$
C44136-P115
     RDKit          3D

 54 55  0  0  0  0  0  0  0  0999 V2000
   10.1008   -2.5913   15.1407 C   0  0  0  0  0  0  0  0  0  0  0  0
    9.4396   -4.0404   15.3381 C   0  0  0  0  0  0  0  0  0  0  0  0
    7.7754   -4.9353   16.3013 C   0  0  0  0  0  0  0  0  0  0  0  0
    7.2334   -3.1990   15.3763 C   0  0  0  0  0  0  0  0  0  0  0  0
    7.4387   -1.6424   15.5679 C   0  0  0  0  0  0  0  0  0  0  0  0
    7.4419   -6.2152   18.1397 C   0  0  0  0  0  0  0  0  0  0  0  0
    6.4504   -6.8351   18.3990 O   0  0  0  0  0  0  0  0  0  0  0  0
    9.2927   -6.1455   19.1204 N   0  0  0  0  0  0  0  0  0  0  0  0
   10.1295   -7.1273   20.6765 C   0  0  0  0  0  0  0  0  0  0  0  0
   11.1007   -8.4946   21.8136 C   0  0  0  0  0  0  0  0  0  0  0  0
   10.5203   -9.2178   23.1654 N   0  0  0  0  0  0  0  0  0  0  0  0
   10.7972  -10.5514   23.7484 C   0  0  0  0  0  0  0  0  0  0  0  0
   11.5768  -11.4024   23.4148 O   0  0  0  0  0  0  0  0  0  0  0  0
    9.7651  -10.8903   24.9738 C   0  0  0  0  0  0  0  0  0  0  0  0
    9.3381  -12.4059   25.0479 C   0  0  0  0  0  0  0  0  0  0  0  0
    8.2763  -12.9356   26.0780 C   0  0  0  0  0  0  0  0  0  0  0  0
    7.0082  -12.5802   26.2600 N   0  0  0  0  0  0  0  0  0  0  0  0
    6.4552  -13.4801   27.1611 C   0  0  0  0  0  0  0  0  0  0  0  0
    7.3593  -14.4527   27.4843 C   0  0  0  0  0  0  0  0  0  0  0  0
    8.4924  -14.1154   26.7890 N   0  0  0  0  0  0  0  0  0  0  0  0
   12.1894   -6.9720   20.9355 C   0  0  0  0  0  0  0  0  0  0  0  0
   13.2570   -5.8224   20.6651 C   0  0  0  0  0  0  0  0  0  0  0  0
   12.3495   -4.7809   21.0985 C   0  0  0  0  0  0  0  0  0  0  0  0
   11.1967   -5.5412   20.3761 C   0  0  0  0  0  0  0  0  0  0  0  0
   10.9881   -2.7225   14.5043 H   0  0  0  0  0  0  0  0  0  0  0  0
    9.5019   -1.8480   14.6582 H   0  0  0  0  0  0  0  0  0  0  0  0
   10.4946   -2.1529   16.0629 H   0  0  0  0  0  0  0  0  0  0  0  0
   10.3256   -4.1916   16.0694 H   0  0  0  0  0  0  0  0  0  0  0  0
    9.9406   -4.6427   14.5756 H   0  0  0  0  0  0  0  0  0  0  0  0
    7.3836   -5.8072   15.7219 H   0  0  0  0  0  0  0  0  0  0  0  0
    6.1682   -3.3182   15.0591 H   0  0  0  0  0  0  0  0  0  0  0  0
    7.7406   -3.1722   14.3996 H   0  0  0  0  0  0  0  0  0  0  0  0
    6.5683   -1.1203   15.9738 H   0  0  0  0  0  0  0  0  0  0  0  0
    7.5330   -1.2003   14.5674 H   0  0  0  0  0  0  0  0  0  0  0  0
    8.3114   -1.3132   16.1269 H   0  0  0  0  0  0  0  0  0  0  0  0
    9.9330   -5.4506   18.7073 H   0  0  0  0  0  0  0  0  0  0  0  0
   11.6184   -7.9687   22.6182 H   0  0  0  0  0  0  0  0  0  0  0  0
   11.8341   -9.1714   21.3613 H   0  0  0  0  0  0  0  0  0  0  0  0
    9.8606   -8.7325   23.7513 H   0  0  0  0  0  0  0  0  0  0  0  0
    8.8684  -10.2690   24.8799 H   0  0  0  0  0  0  0  0  0  0  0  0
   10.2723  -10.6072   25.9027 H   0  0  0  0  0  0  0  0  0  0  0  0
   10.2513  -12.9994   25.1875 H   0  0  0  0  0  0  0  0  0  0  0  0
    8.9508  -12.6832   24.0640 H   0  0  0  0  0  0  0  0  0  0  0  0
    5.4410  -13.3950   27.5168 H   0  0  0  0  0  0  0  0  0  0  0  0
    7.3086  -15.3275   28.1157 H   0  0  0  0  0  0  0  0  0  0  0  0
    9.3459  -14.6551   26.7502 H   0  0  0  0  0  0  0  0  0  0  0  0
   12.4149   -6.7922   22.0250 H   0  0  0  0  0  0  0  0  0  0  0  0
   12.8384   -7.8489   20.8878 H   0  0  0  0  0  0  0  0  0  0  0  0
   13.6022   -5.6713   19.6377 H   0  0  0  0  0  0  0  0  0  0  0  0
   14.1442   -5.9108   21.3035 H   0  0  0  0  0  0  0  0  0  0  0  0
   12.2928   -4.6773   22.1874 H   0  0  0  0  0  0  0  0  0  0  0  0
   12.6059   -3.8130   20.6618 H   0  0  0  0  0  0  0  0  0  0  0  0
   10.2542   -5.0775   20.4525 H   0  0  0  0  0  0  0  0  0  0  0  0
   11.5813   -5.4638   19.3541 H   0  0  0  0  0  0  0  0  0  0  0  0
  1  2  1  0
  2  3  1  0
  3  4  1  0
  4  5  1  0
  3  6  1  0
  6  7  2  0
  6  8  1  0
  8  9  1  0
  9 10  1  0
 10 11  1  0
 11 12  1  0
 12 13  2  0
 12 14  1  0
 14 15  1  0
 15 16  1  0
 16 17  2  0
 17 18  1  0
 18 19  2  0
 19 20  1  0
  9 21  1  0
 21 22  1  0
 22 23  1  0
 23 24  1  0
 24  9  1  0
 20 16  1  0
  1 25  1  0
  1 26  1  0
  1 27  1  0
  2 28  1  0
  2 29  1  0
  3 30  1  0
  4 31  1  0
  4 32  1  0
  5 33  1  0
  5 34  1  0
  5 35  1  0
  8 36  1  0
 10 37  1  0
 10 38  1  0
 11 39  1  0
 14 40  1  0
 14 41  1  0
 15 42  1  0
 15 43  1  0
 18 44  1  0
 19 45  1  0
 20 46  1  0
 21 47  1  0
 21 48  1  0
 22 49  1  0
 22 50  1  0
 23 51  1  0
 23 52  1  0
 24 53  1  0
 24 54  1  0
M  END
>  <Energy>  (1195) 
1197.462210647936

>  <compound_id>  (1195) 
44136

>  <target_id>  (1195) 
1

>  <reference_id>  (1195) 
115

>  <inspiration_ids>  (1195) 
[115, 27]

>  <energy_score>  (1195) 
1161.9322843947489

>  <distance_score>  (1195) 
12.535608285382503

>  <path>  (1195) 
/opt/xchem-fragalysis-2/maxwin/BulkDock/SCRATCH/511016/C44136-P115/C44136-P115.minimised.mol

>  <scratch_subdir>  (1195) 
/opt/xchem-fragalysis-2/maxwin/BulkDock/SCRATCH/511016/C44136-P115

>  <fragmenstein_runtime>  (1195) 
31.366851806640625

>  <fragmenstein_outcome>  (1195) 
too moved

>  <fragmenstein_mode>  (1195) 
expansion

>  <fragmenstein_error>  (1195) 


$$$$
C44136-P27
     RDKit          3D

 54 55  0  0  0  0  0  0  0  0999 V2000
   15.0322   -9.3683   20.4711 C   0  0  0  0  0  0  0  0  0  0  0  0
   14.8627  -10.8695   20.1950 C   0  0  0  0  0  0  0  0  0  0  0  0
   13.9802  -11.2250   18.9687 C   0  0  0  0  0  0  0  0  0  0  0  0
   14.2895  -12.5832   18.3532 C   0  0  0  0  0  0  0  0  0  0  0  0
   14.8152  -12.4288   16.9238 C   0  0  0  0  0  0  0  0  0  0  0  0
   12.4299  -11.0340   19.2345 C   0  0  0  0  0  0  0  0  0  0  0  0
   12.1048  -10.7636   20.3544 O   0  0  0  0  0  0  0  0  0  0  0  0
   11.6150  -11.2142   18.0080 N   0  0  0  0  0  0  0  0  0  0  0  0
    9.8520  -11.2167   17.7547 C   0  0  0  0  0  0  0  0  0  0  0  0
    8.1826  -10.6159   18.7830 C   0  0  0  0  0  0  0  0  0  0  0  0
    6.3260  -11.1553   18.6529 N   0  0  0  0  0  0  0  0  0  0  0  0
    5.5509  -12.3047   19.3495 C   0  0  0  0  0  0  0  0  0  0  0  0
    5.8937  -13.0551   20.2171 O   0  0  0  0  0  0  0  0  0  0  0  0
    3.8794  -12.7008   18.6007 C   0  0  0  0  0  0  0  0  0  0  0  0
    3.1993  -14.4190   18.2437 C   0  0  0  0  0  0  0  0  0  0  0  0
    2.1343  -15.0615   16.8759 C   0  0  0  0  0  0  0  0  0  0  0  0
    2.3943  -16.1317   16.0793 N   0  0  0  0  0  0  0  0  0  0  0  0
    1.5377  -16.1816   14.9944 C   0  0  0  0  0  0  0  0  0  0  0  0
    0.8214  -15.0220   14.9270 C   0  0  0  0  0  0  0  0  0  0  0  0
    1.2294  -14.2843   16.0209 N   0  0  0  0  0  0  0  0  0  0  0  0
   10.0931  -12.6479   16.9072 C   0  0  0  0  0  0  0  0  0  0  0  0
   11.0148  -12.5446   15.6900 C   0  0  0  0  0  0  0  0  0  0  0  0
   10.8617  -11.1137   15.3009 C   0  0  0  0  0  0  0  0  0  0  0  0
    9.7545  -10.5738   16.2095 C   0  0  0  0  0  0  0  0  0  0  0  0
   14.1153   -8.9307   20.8690 H   0  0  0  0  0  0  0  0  0  0  0  0
   15.8048   -9.2268   21.2349 H   0  0  0  0  0  0  0  0  0  0  0  0
   15.3548   -8.8302   19.5765 H   0  0  0  0  0  0  0  0  0  0  0  0
   14.4797  -11.3635   21.0958 H   0  0  0  0  0  0  0  0  0  0  0  0
   15.8700  -11.2730   20.0280 H   0  0  0  0  0  0  0  0  0  0  0  0
   14.3497  -10.5255   18.2388 H   0  0  0  0  0  0  0  0  0  0  0  0
   15.0463  -13.1154   18.9414 H   0  0  0  0  0  0  0  0  0  0  0  0
   13.4066  -13.2324   18.3382 H   0  0  0  0  0  0  0  0  0  0  0  0
   15.7391  -11.8412   16.9064 H   0  0  0  0  0  0  0  0  0  0  0  0
   14.0860  -11.9548   16.2662 H   0  0  0  0  0  0  0  0  0  0  0  0
   15.0428  -13.4154   16.5069 H   0  0  0  0  0  0  0  0  0  0  0  0
   12.2151  -11.5217   17.2520 H   0  0  0  0  0  0  0  0  0  0  0  0
    8.0252  -10.4260   17.7278 H   0  0  0  0  0  0  0  0  0  0  0  0
    8.3624   -9.5887   19.0188 H   0  0  0  0  0  0  0  0  0  0  0  0
    5.7119  -10.6719   18.0267 H   0  0  0  0  0  0  0  0  0  0  0  0
    3.1085  -12.0091   18.3576 H   0  0  0  0  0  0  0  0  0  0  0  0
    4.0403  -12.2621   17.6075 H   0  0  0  0  0  0  0  0  0  0  0  0
    2.5646  -14.6810   19.0680 H   0  0  0  0  0  0  0  0  0  0  0  0
    4.0868  -15.0429   18.1690 H   0  0  0  0  0  0  0  0  0  0  0  0
    1.5284  -17.0295   14.3231 H   0  0  0  0  0  0  0  0  0  0  0  0
    0.0886  -14.6453   14.2293 H   0  0  0  0  0  0  0  0  0  0  0  0
    0.9372  -13.3451   16.2222 H   0  0  0  0  0  0  0  0  0  0  0  0
   10.4660  -13.4782   17.5229 H   0  0  0  0  0  0  0  0  0  0  0  0
    9.1878  -12.8621   16.3831 H   0  0  0  0  0  0  0  0  0  0  0  0
   12.0467  -12.8411   15.8885 H   0  0  0  0  0  0  0  0  0  0  0  0
   10.6684  -13.2147   14.8930 H   0  0  0  0  0  0  0  0  0  0  0  0
   11.7982  -10.5730   15.4432 H   0  0  0  0  0  0  0  0  0  0  0  0
   10.5679  -11.0388   14.2497 H   0  0  0  0  0  0  0  0  0  0  0  0
    9.7674   -9.5255   16.0813 H   0  0  0  0  0  0  0  0  0  0  0  0
    8.8195  -10.8309   15.7244 H   0  0  0  0  0  0  0  0  0  0  0  0
  1  2  1  0
  2  3  1  0
  3  4  1  0
  4  5  1  0
  3  6  1  0
  6  7  2  0
  6  8  1  0
  8  9  1  0
  9 10  1  0
 10 11  1  0
 11 12  1  0
 12 13  2  0
 12 14  1  0
 14 15  1  0
 15 16  1  0
 16 17  2  0
 17 18  1  0
 18 19  2  0
 19 20  1  0
  9 21  1  0
 21 22  1  0
 22 23  1  0
 23 24  1  0
 24  9  1  0
 20 16  1  0
  1 25  1  0
  1 26  1  0
  1 27  1  0
  2 28  1  0
  2 29  1  0
  3 30  1  0
  4 31  1  0
  4 32  1  0
  5 33  1  0
  5 34  1  0
  5 35  1  0
  8 36  1  0
 10 37  1  0
 10 38  1  0
 11 39  1  0
 14 40  1  0
 14 41  1  0
 15 42  1  0
 15 43  1  0
 18 44  1  0
 19 45  1  0
 20 46  1  0
 21 47  1  0
 21 48  1  0
 22 49  1  0
 22 50  1  0
 23 51  1  0
 23 52  1  0
 24 53  1  0
 24 54  1  0
M  END
>  <Energy>  (1196) 
421.80871976039185

>  <compound_id>  (1196) 
44136

>  <target_id>  (1196) 
1

>  <reference_id>  (1196) 
27

>  <inspiration_ids>  (1196) 
[115, 27]

>  <energy_score>  (1196) 
386.2787935072106

>  <distance_score>  (1196) 
14.303216279638178

>  <path>  (1196) 
/opt/xchem-fragalysis-2/maxwin/BulkDock/SCRATCH/511016/C44136-P27/C44136-P27.minimised.mol

>  <scratch_subdir>  (1196) 
/opt/xchem-fragalysis-2/maxwin/BulkDock/SCRATCH/511016/C44136-P27

>  <fragmenstein_runtime>  (1196) 
36.79196286201477

>  <fragmenstein_outcome>  (1196) 
too moved

>  <fragmenstein_mode>  (1196) 
expansion

>  <fragmenstein_error>  (1196) 


$$$$
C73149-P115
     RDKit          3D

 54 55  0  0  0  0  0  0  0  0999 V2000
   11.5524  -11.2711   19.5775 C   0  0  0  0  0  0  0  0  0  0  0  0
   11.4158  -12.4275   18.5946 C   0  0  0  0  0  0  0  0  0  0  0  0
   10.0030  -12.7419   18.0279 C   0  0  0  0  0  0  0  0  0  0  0  0
    9.5236  -11.6296   17.0240 C   0  0  0  0  0  0  0  0  0  0  0  0
   10.4932  -11.1736   15.9435 C   0  0  0  0  0  0  0  0  0  0  0  0
    8.9017  -12.8795   19.1432 C   0  0  0  0  0  0  0  0  0  0  0  0
    9.1626  -12.5670   20.2706 O   0  0  0  0  0  0  0  0  0  0  0  0
    7.6427  -13.3055   18.5429 N   0  0  0  0  0  0  0  0  0  0  0  0
    6.2223  -13.3905   19.1295 C   0  0  0  0  0  0  0  0  0  0  0  0
    6.0136  -11.9591   18.4024 C   0  0  0  0  0  0  0  0  0  0  0  0
    6.4286  -10.8956   19.4347 C   0  0  0  0  0  0  0  0  0  0  0  0
    6.0774  -11.5200   20.7982 C   0  0  0  0  0  0  0  0  0  0  0  0
    5.1961  -12.8942   20.5370 C   0  0  0  0  0  0  0  0  0  0  0  0
    3.6449  -13.4045   21.6589 C   0  0  0  0  0  0  0  0  0  0  0  0
    2.9748  -14.8218   22.8655 N   0  0  0  0  0  0  0  0  0  0  0  0
    3.8015  -16.2391   23.6553 C   0  0  0  0  0  0  0  0  0  0  0  0
    4.9761  -16.4941   23.6435 O   0  0  0  0  0  0  0  0  0  0  0  0
    2.6956  -17.8504   24.6091 C   0  0  0  0  0  0  0  0  0  0  0  0
    0.7858  -18.7362   24.8423 C   0  0  0  0  0  0  0  0  0  0  0  0
   -0.7799  -18.6148   26.1544 C   0  0  0  0  0  0  0  0  0  0  0  0
   -1.2916  -19.6682   27.1077 C   0  0  0  0  0  0  0  0  0  0  0  0
   -2.5739  -20.1532   26.9737 N   0  0  0  0  0  0  0  0  0  0  0  0
   -2.6599  -19.8443   25.7023 C   0  0  0  0  0  0  0  0  0  0  0  0
   -2.0192  -18.5898   25.5697 N   0  0  0  0  0  0  0  0  0  0  0  0
   10.9092  -10.4366   19.3230 H   0  0  0  0  0  0  0  0  0  0  0  0
   11.2943  -11.5867   20.5932 H   0  0  0  0  0  0  0  0  0  0  0  0
   12.5994  -10.9619   19.6300 H   0  0  0  0  0  0  0  0  0  0  0  0
   11.7741  -13.3299   19.1082 H   0  0  0  0  0  0  0  0  0  0  0  0
   12.1126  -12.2760   17.7629 H   0  0  0  0  0  0  0  0  0  0  0  0
   10.0619  -13.6979   17.4921 H   0  0  0  0  0  0  0  0  0  0  0  0
    9.1544  -10.7698   17.5865 H   0  0  0  0  0  0  0  0  0  0  0  0
    8.6469  -12.0116   16.4876 H   0  0  0  0  0  0  0  0  0  0  0  0
   10.8567  -12.0299   15.3670 H   0  0  0  0  0  0  0  0  0  0  0  0
    9.9832  -10.4955   15.2525 H   0  0  0  0  0  0  0  0  0  0  0  0
   11.3513  -10.6481   16.3508 H   0  0  0  0  0  0  0  0  0  0  0  0
    7.8082  -13.5715   17.5789 H   0  0  0  0  0  0  0  0  0  0  0  0
    6.8839  -13.4584   19.9793 H   0  0  0  0  0  0  0  0  0  0  0  0
    4.9859  -11.8889   18.0301 H   0  0  0  0  0  0  0  0  0  0  0  0
    6.5682  -11.7910   17.4668 H   0  0  0  0  0  0  0  0  0  0  0  0
    5.9257   -9.9424   19.2471 H   0  0  0  0  0  0  0  0  0  0  0  0
    7.4967  -10.6646   19.3885 H   0  0  0  0  0  0  0  0  0  0  0  0
    5.6823  -10.8102   21.5231 H   0  0  0  0  0  0  0  0  0  0  0  0
    7.0318  -11.8068   21.2578 H   0  0  0  0  0  0  0  0  0  0  0  0
    4.4269  -12.7527   19.7927 H   0  0  0  0  0  0  0  0  0  0  0  0
    3.4985  -12.6341   22.4415 H   0  0  0  0  0  0  0  0  0  0  0  0
    3.0262  -13.6631   20.8363 H   0  0  0  0  0  0  0  0  0  0  0  0
    1.9914  -14.8095   23.1198 H   0  0  0  0  0  0  0  0  0  0  0  0
    3.0879  -17.8988   25.6471 H   0  0  0  0  0  0  0  0  0  0  0  0
    3.1555  -18.7662   24.2177 H   0  0  0  0  0  0  0  0  0  0  0  0
    0.7816  -19.5757   24.1688 H   0  0  0  0  0  0  0  0  0  0  0  0
    0.6359  -18.8391   25.9974 H   0  0  0  0  0  0  0  0  0  0  0  0
   -0.8537  -20.4841   27.6800 H   0  0  0  0  0  0  0  0  0  0  0  0
   -3.0035  -20.9345   27.4500 H   0  0  0  0  0  0  0  0  0  0  0  0
   -3.3334  -20.3481   25.0121 H   0  0  0  0  0  0  0  0  0  0  0  0
  1  2  1  0
  2  3  1  0
  3  4  1  0
  4  5  1  0
  3  6  1  0
  6  7  2  0
  6  8  1  0
  8  9  1  0
  9 10  1  0
 10 11  1  0
 11 12  1  0
 12 13  1  0
 13 14  1  0
 14 15  1  0
 15 16  1  0
 16 17  2  0
 16 18  1  0
 18 19  1  0
 19 20  1  0
 20 21  2  0
 21 22  1  0
 22 23  1  0
 23 24  2  0
 13  9  1  0
 24 20  1  0
  1 25  1  0
  1 26  1  0
  1 27  1  0
  2 28  1  0
  2 29  1  0
  3 30  1  0
  4 31  1  0
  4 32  1  0
  5 33  1  0
  5 34  1  0
  5 35  1  0
  8 36  1  0
  9 37  1  0
 10 38  1  0
 10 39  1  0
 11 40  1  0
 11 41  1  0
 12 42  1  0
 12 43  1  0
 13 44  1  0
 14 45  1  0
 14 46  1  0
 15 47  1  0
 18 48  1  0
 18 49  1  0
 19 50  1  0
 19 51  1  0
 21 52  1  0
 22 53  1  0
 23 54  1  0
M  END
>  <Energy>  (1197) 
829.66461769400837

>  <compound_id>  (1197) 
73149

>  <target_id>  (1197) 
1

>  <reference_id>  (1197) 
115

>  <inspiration_ids>  (1197) 
[115, 27]

>  <energy_score>  (1197) 
820.0837481358842

>  <distance_score>  (1197) 
12.016596005228099

>  <path>  (1197) 
/opt/xchem-fragalysis-2/maxwin/BulkDock/SCRATCH/511016/C73149-P115/C73149-P115.minimised.mol

>  <scratch_subdir>  (1197) 
/opt/xchem-fragalysis-2/maxwin/BulkDock/SCRATCH/511016/C73149-P115

>  <fragmenstein_runtime>  (1197) 
48.515281677246094

>  <fragmenstein_outcome>  (1197) 
too moved

>  <fragmenstein_mode>  (1197) 
expansion

>  <fragmenstein_error>  (1197) 


$$$$
C73149-P27
     RDKit          3D

 54 55  0  0  0  0  0  0  0  0999 V2000
   12.1024   -6.3579   24.7218 C   0  0  0  0  0  0  0  0  0  0  0  0
   11.4273   -7.3555   25.6760 C   0  0  0  0  0  0  0  0  0  0  0  0
   10.4029   -8.4415   25.1435 C   0  0  0  0  0  0  0  0  0  0  0  0
   11.0078   -9.1777   23.9137 C   0  0  0  0  0  0  0  0  0  0  0  0
   12.4161   -9.7221   24.0643 C   0  0  0  0  0  0  0  0  0  0  0  0
    9.8953   -9.3877   26.3502 C   0  0  0  0  0  0  0  0  0  0  0  0
   10.4673   -9.1899   27.3898 O   0  0  0  0  0  0  0  0  0  0  0  0
    8.8898  -10.4086   25.9864 N   0  0  0  0  0  0  0  0  0  0  0  0
    8.3387  -11.5900   26.7782 C   0  0  0  0  0  0  0  0  0  0  0  0
    9.6832  -12.2861   27.1451 C   0  0  0  0  0  0  0  0  0  0  0  0
   10.0923  -12.9264   25.8172 C   0  0  0  0  0  0  0  0  0  0  0  0
    8.7569  -13.2367   25.1021 C   0  0  0  0  0  0  0  0  0  0  0  0
    7.6298  -12.9101   26.1328 C   0  0  0  0  0  0  0  0  0  0  0  0
    5.8160  -13.1266   25.9975 C   0  0  0  0  0  0  0  0  0  0  0  0
    4.9101  -14.7209   25.5181 N   0  0  0  0  0  0  0  0  0  0  0  0
    3.9822  -15.8449   26.5004 C   0  0  0  0  0  0  0  0  0  0  0  0
    3.6763  -15.7472   27.6793 O   0  0  0  0  0  0  0  0  0  0  0  0
    3.3966  -17.6813   25.7551 C   0  0  0  0  0  0  0  0  0  0  0  0
    4.1216  -19.4693   26.0344 C   0  0  0  0  0  0  0  0  0  0  0  0
    4.3731  -20.8921   25.4028 C   0  0  0  0  0  0  0  0  0  0  0  0
    4.5819  -22.0629   26.1478 C   0  0  0  0  0  0  0  0  0  0  0  0
    4.5968  -23.0957   25.2578 N   0  0  0  0  0  0  0  0  0  0  0  0
    4.5634  -22.5397   24.0173 C   0  0  0  0  0  0  0  0  0  0  0  0
    4.4055  -21.2309   24.0804 N   0  0  0  0  0  0  0  0  0  0  0  0
   13.0416   -6.0152   25.1719 H   0  0  0  0  0  0  0  0  0  0  0  0
   12.3489   -6.7849   23.7496 H   0  0  0  0  0  0  0  0  0  0  0  0
   11.4942   -5.4629   24.5964 H   0  0  0  0  0  0  0  0  0  0  0  0
   12.2365   -7.8941   26.1884 H   0  0  0  0  0  0  0  0  0  0  0  0
   10.9292   -6.7771   26.4657 H   0  0  0  0  0  0  0  0  0  0  0  0
    9.4981   -7.8986   24.8522 H   0  0  0  0  0  0  0  0  0  0  0  0
   10.3543  -10.0091   23.6273 H   0  0  0  0  0  0  0  0  0  0  0  0
   11.0630   -8.4976   23.0597 H   0  0  0  0  0  0  0  0  0  0  0  0
   12.4825  -10.3918   24.9274 H   0  0  0  0  0  0  0  0  0  0  0  0
   12.6938  -10.2953   23.1734 H   0  0  0  0  0  0  0  0  0  0  0  0
   13.1615   -8.9328   24.1881 H   0  0  0  0  0  0  0  0  0  0  0  0
    8.6841  -10.3335   25.0003 H   0  0  0  0  0  0  0  0  0  0  0  0
    7.8264  -11.2218   27.6707 H   0  0  0  0  0  0  0  0  0  0  0  0
    9.5247  -13.0567   27.9108 H   0  0  0  0  0  0  0  0  0  0  0  0
   10.4687  -11.6357   27.5357 H   0  0  0  0  0  0  0  0  0  0  0  0
   10.7054  -12.2566   25.2055 H   0  0  0  0  0  0  0  0  0  0  0  0
   10.6766  -13.8357   25.9945 H   0  0  0  0  0  0  0  0  0  0  0  0
    8.6605  -12.6260   24.2006 H   0  0  0  0  0  0  0  0  0  0  0  0
    8.8335  -14.2916   24.8404 H   0  0  0  0  0  0  0  0  0  0  0  0
    7.7953  -13.6890   26.8781 H   0  0  0  0  0  0  0  0  0  0  0  0
    5.6534  -12.3505   25.2779 H   0  0  0  0  0  0  0  0  0  0  0  0
    5.4928  -12.8884   27.0172 H   0  0  0  0  0  0  0  0  0  0  0  0
    5.0685  -15.1235   24.5913 H   0  0  0  0  0  0  0  0  0  0  0  0
    2.5669  -17.7654   26.4561 H   0  0  0  0  0  0  0  0  0  0  0  0
    3.0971  -17.8324   24.7212 H   0  0  0  0  0  0  0  0  0  0  0  0
    3.8357  -19.5063   27.0740 H   0  0  0  0  0  0  0  0  0  0  0  0
    5.0969  -19.5811   26.4907 H   0  0  0  0  0  0  0  0  0  0  0  0
    4.6615  -22.2354   27.2109 H   0  0  0  0  0  0  0  0  0  0  0  0
    4.7124  -24.0788   25.4645 H   0  0  0  0  0  0  0  0  0  0  0  0
    4.6326  -23.1187   23.1051 H   0  0  0  0  0  0  0  0  0  0  0  0
  1  2  1  0
  2  3  1  0
  3  4  1  0
  4  5  1  0
  3  6  1  0
  6  7  2  0
  6  8  1  0
  8  9  1  0
  9 10  1  0
 10 11  1  0
 11 12  1  0
 12 13  1  0
 13 14  1  0
 14 15  1  0
 15 16  1  0
 16 17  2  0
 16 18  1  0
 18 19  1  0
 19 20  1  0
 20 21  2  0
 21 22  1  0
 22 23  1  0
 23 24  2  0
 13  9  1  0
 24 20  1  0
  1 25  1  0
  1 26  1  0
  1 27  1  0
  2 28  1  0
  2 29  1  0
  3 30  1  0
  4 31  1  0
  4 32  1  0
  5 33  1  0
  5 34  1  0
  5 35  1  0
  8 36  1  0
  9 37  1  0
 10 38  1  0
 10 39  1  0
 11 40  1  0
 11 41  1  0
 12 42  1  0
 12 43  1  0
 13 44  1  0
 14 45  1  0
 14 46  1  0
 15 47  1  0
 18 48  1  0
 18 49  1  0
 19 50  1  0
 19 51  1  0
 21 52  1  0
 22 53  1  0
 23 54  1  0
M  END
>  <Energy>  (1198) 
334.70876915222493

>  <compound_id>  (1198) 
73149

>  <target_id>  (1198) 
1

>  <reference_id>  (1198) 
27

>  <inspiration_ids>  (1198) 
[115, 27]

>  <energy_score>  (1198) 
325.1278995940999

>  <distance_score>  (1198) 
13.659591470974926

>  <path>  (1198) 
/opt/xchem-fragalysis-2/maxwin/BulkDock/SCRATCH/511016/C73149-P27/C73149-P27.minimised.mol

>  <scratch_subdir>  (1198) 
/opt/xchem-fragalysis-2/maxwin/BulkDock/SCRATCH/511016/C73149-P27

>  <fragmenstein_runtime>  (1198) 
49.95839977264404

>  <fragmenstein_outcome>  (1198) 
too moved

>  <fragmenstein_mode>  (1198) 
expansion

>  <fragmenstein_error>  (1198) 


$$$$
C73150-P115
     RDKit          3D

 54 55  0  0  0  0  0  0  0  0999 V2000
    4.2774   -7.4157   13.9911 C   0  0  0  0  0  0  0  0  0  0  0  0
    4.9064   -8.5358   14.8049 C   0  0  0  0  0  0  0  0  0  0  0  0
    4.0950   -8.9094   16.0711 C   0  0  0  0  0  0  0  0  0  0  0  0
    3.9266   -7.6895   17.0237 C   0  0  0  0  0  0  0  0  0  0  0  0
    5.1338   -6.8139   17.3440 C   0  0  0  0  0  0  0  0  0  0  0  0
    4.7834  -10.1322   16.7461 C   0  0  0  0  0  0  0  0  0  0  0  0
    5.6620   -9.8844   17.5277 O   0  0  0  0  0  0  0  0  0  0  0  0
    4.2971  -11.4164   16.2309 N   0  0  0  0  0  0  0  0  0  0  0  0
    4.7930  -12.7743   16.4317 C   0  0  0  0  0  0  0  0  0  0  0  0
    5.7359  -12.9165   17.6362 C   0  0  0  0  0  0  0  0  0  0  0  0
    6.3016  -14.3046   17.4354 C   0  0  0  0  0  0  0  0  0  0  0  0
    5.0780  -15.1263   17.0368 C   0  0  0  0  0  0  0  0  0  0  0  0
    4.0865  -14.2063   16.2544 C   0  0  0  0  0  0  0  0  0  0  0  0
    2.6639  -14.6280   16.4971 N   0  0  0  0  0  0  0  0  0  0  0  0
    2.0822  -15.9701   16.7926 C   0  0  0  0  0  0  0  0  0  0  0  0
    2.6217  -17.0290   16.9889 O   0  0  0  0  0  0  0  0  0  0  0  0
    0.4293  -16.0747   16.7382 C   0  0  0  0  0  0  0  0  0  0  0  0
   -0.2790  -14.7290   16.5092 C   0  0  0  0  0  0  0  0  0  0  0  0
    0.1611  -16.9054   15.4492 C   0  0  0  0  0  0  0  0  0  0  0  0
   -0.2747  -16.8774   17.9429 C   0  0  0  0  0  0  0  0  0  0  0  0
   -1.3478  -16.5052   18.7493 C   0  0  0  0  0  0  0  0  0  0  0  0
   -1.6136  -17.5618   19.5850 N   0  0  0  0  0  0  0  0  0  0  0  0
   -0.7912  -18.5794   19.2193 C   0  0  0  0  0  0  0  0  0  0  0  0
   -0.0090  -18.2164   18.2218 N   0  0  0  0  0  0  0  0  0  0  0  0
    4.1757   -6.4904   14.5598 H   0  0  0  0  0  0  0  0  0  0  0  0
    3.2730   -7.7078   13.6653 H   0  0  0  0  0  0  0  0  0  0  0  0
    4.8652   -7.2269   13.0884 H   0  0  0  0  0  0  0  0  0  0  0  0
    5.9328   -8.2731   15.0567 H   0  0  0  0  0  0  0  0  0  0  0  0
    4.9826   -9.4229   14.1627 H   0  0  0  0  0  0  0  0  0  0  0  0
    3.0855   -9.2229   15.7743 H   0  0  0  0  0  0  0  0  0  0  0  0
    3.1551   -7.0371   16.5941 H   0  0  0  0  0  0  0  0  0  0  0  0
    3.5071   -8.0441   17.9717 H   0  0  0  0  0  0  0  0  0  0  0  0
    5.8501   -7.3460   17.9702 H   0  0  0  0  0  0  0  0  0  0  0  0
    4.7972   -5.9510   17.9271 H   0  0  0  0  0  0  0  0  0  0  0  0
    5.6241   -6.4325   16.4485 H   0  0  0  0  0  0  0  0  0  0  0  0
    3.5958  -11.2443   15.5213 H   0  0  0  0  0  0  0  0  0  0  0  0
    5.4932  -12.7921   15.5772 H   0  0  0  0  0  0  0  0  0  0  0  0
    6.5429  -12.1797   17.6529 H   0  0  0  0  0  0  0  0  0  0  0  0
    5.1795  -12.8565   18.5753 H   0  0  0  0  0  0  0  0  0  0  0  0
    6.7849  -14.6954   18.3347 H   0  0  0  0  0  0  0  0  0  0  0  0
    7.0395  -14.3096   16.6245 H   0  0  0  0  0  0  0  0  0  0  0  0
    5.3639  -15.9988   16.4390 H   0  0  0  0  0  0  0  0  0  0  0  0
    4.6012  -15.5073   17.9436 H   0  0  0  0  0  0  0  0  0  0  0  0
    4.1987  -14.4435   15.1869 H   0  0  0  0  0  0  0  0  0  0  0  0
    1.9206  -13.9821   16.3065 H   0  0  0  0  0  0  0  0  0  0  0  0
    0.0454  -14.2490   15.5788 H   0  0  0  0  0  0  0  0  0  0  0  0
   -0.0847  -14.0352   17.3239 H   0  0  0  0  0  0  0  0  0  0  0  0
   -1.3661  -14.8502   16.4329 H   0  0  0  0  0  0  0  0  0  0  0  0
    0.5961  -17.9093   15.5207 H   0  0  0  0  0  0  0  0  0  0  0  0
   -0.9133  -17.0278   15.2679 H   0  0  0  0  0  0  0  0  0  0  0  0
    0.6033  -16.4232   14.5696 H   0  0  0  0  0  0  0  0  0  0  0  0
   -1.9215  -15.5931   18.8165 H   0  0  0  0  0  0  0  0  0  0  0  0
   -2.2762  -17.5634   20.3478 H   0  0  0  0  0  0  0  0  0  0  0  0
   -0.7893  -19.5460   19.7051 H   0  0  0  0  0  0  0  0  0  0  0  0
  1  2  1  0
  2  3  1  0
  3  4  1  0
  4  5  1  0
  3  6  1  0
  6  7  2  0
  6  8  1  0
  8  9  1  0
  9 10  1  0
 10 11  1  0
 11 12  1  0
 12 13  1  0
 13 14  1  0
 14 15  1  0
 15 16  2  0
 15 17  1  0
 17 18  1  0
 17 19  1  0
 17 20  1  0
 20 21  2  0
 21 22  1  0
 22 23  1  0
 23 24  2  0
 13  9  1  0
 24 20  1  0
  1 25  1  0
  1 26  1  0
  1 27  1  0
  2 28  1  0
  2 29  1  0
  3 30  1  0
  4 31  1  0
  4 32  1  0
  5 33  1  0
  5 34  1  0
  5 35  1  0
  8 36  1  0
  9 37  1  0
 10 38  1  0
 10 39  1  0
 11 40  1  0
 11 41  1  0
 12 42  1  0
 12 43  1  0
 13 44  1  0
 14 45  1  0
 18 46  1  0
 18 47  1  0
 18 48  1  0
 19 49  1  0
 19 50  1  0
 19 51  1  0
 21 52  1  0
 22 53  1  0
 23 54  1  0
M  END
>  <Energy>  (1199) 
94.360944993373195

>  <compound_id>  (1199) 
73150

>  <target_id>  (1199) 
1

>  <reference_id>  (1199) 
115

>  <inspiration_ids>  (1199) 
[115, 27]

>  <energy_score>  (1199) 
23.850686958746678

>  <distance_score>  (1199) 
14.577748611368133

>  <path>  (1199) 
/opt/xchem-fragalysis-2/maxwin/BulkDock/SCRATCH/511016/C73150-P115/C73150-P115.minimised.mol

>  <scratch_subdir>  (1199) 
/opt/xchem-fragalysis-2/maxwin/BulkDock/SCRATCH/511016/C73150-P115

>  <fragmenstein_runtime>  (1199) 
50.455384254455566

>  <fragmenstein_outcome>  (1199) 
too moved

>  <fragmenstein_mode>  (1199) 
expansion

>  <fragmenstein_error>  (1199) 


$$$$
C73150-P27
     RDKit          3D

 54 55  0  0  0  0  0  0  0  0999 V2000
   10.0502  -10.8044   21.1990 C   0  0  0  0  0  0  0  0  0  0  0  0
    8.8180   -9.9786   21.5771 C   0  0  0  0  0  0  0  0  0  0  0  0
    8.2520   -9.1197   20.3742 C   0  0  0  0  0  0  0  0  0  0  0  0
    9.7289   -8.0090   20.2007 C   0  0  0  0  0  0  0  0  0  0  0  0
   10.0863   -5.9944   19.9524 C   0  0  0  0  0  0  0  0  0  0  0  0
    7.5641  -10.4458   19.3694 C   0  0  0  0  0  0  0  0  0  0  0  0
    8.1017  -10.6521   18.3081 O   0  0  0  0  0  0  0  0  0  0  0  0
    6.4111  -11.2214   20.0860 N   0  0  0  0  0  0  0  0  0  0  0  0
    5.5543  -12.7858   19.6393 C   0  0  0  0  0  0  0  0  0  0  0  0
    6.4067  -13.4104   18.5622 C   0  0  0  0  0  0  0  0  0  0  0  0
    7.6918  -13.5630   19.2662 C   0  0  0  0  0  0  0  0  0  0  0  0
    7.3139  -13.2594   20.7430 C   0  0  0  0  0  0  0  0  0  0  0  0
    5.4163  -13.7608   21.2763 C   0  0  0  0  0  0  0  0  0  0  0  0
    5.0410  -15.1470   23.0250 N   0  0  0  0  0  0  0  0  0  0  0  0
    3.7254  -15.7117   23.6849 C   0  0  0  0  0  0  0  0  0  0  0  0
    2.6923  -15.3016   23.3487 O   0  0  0  0  0  0  0  0  0  0  0  0
    3.4746  -17.4621   25.0667 C   0  0  0  0  0  0  0  0  0  0  0  0
    3.0852  -19.1867   24.3408 C   0  0  0  0  0  0  0  0  0  0  0  0
    3.3199  -16.8998   26.9738 C   0  0  0  0  0  0  0  0  0  0  0  0
    2.5264  -18.6781   26.2697 C   0  0  0  0  0  0  0  0  0  0  0  0
    3.1659  -19.7599   26.9592 C   0  0  0  0  0  0  0  0  0  0  0  0
    2.2540  -20.4072   27.7541 N   0  0  0  0  0  0  0  0  0  0  0  0
    1.0905  -19.7266   27.6777 C   0  0  0  0  0  0  0  0  0  0  0  0
    1.1910  -18.7458   26.8124 N   0  0  0  0  0  0  0  0  0  0  0  0
   10.9718  -10.2174   21.1984 H   0  0  0  0  0  0  0  0  0  0  0  0
    9.9484  -11.2923   20.2270 H   0  0  0  0  0  0  0  0  0  0  0  0
   10.1934  -11.5942   21.9454 H   0  0  0  0  0  0  0  0  0  0  0  0
    8.0374  -10.6170   21.9869 H   0  0  0  0  0  0  0  0  0  0  0  0
    9.1131   -9.3995   22.4556 H   0  0  0  0  0  0  0  0  0  0  0  0
    7.3777   -8.5328   20.6685 H   0  0  0  0  0  0  0  0  0  0  0  0
   10.3192   -8.1485   21.1355 H   0  0  0  0  0  0  0  0  0  0  0  0
   10.3574   -8.7127   19.6803 H   0  0  0  0  0  0  0  0  0  0  0  0
   10.1913   -5.7846   18.9027 H   0  0  0  0  0  0  0  0  0  0  0  0
   11.1180   -5.7311   20.3081 H   0  0  0  0  0  0  0  0  0  0  0  0
    9.4194   -5.1548   20.1084 H   0  0  0  0  0  0  0  0  0  0  0  0
    6.2585  -10.8243   21.0039 H   0  0  0  0  0  0  0  0  0  0  0  0
    4.5748  -12.6285   19.1862 H   0  0  0  0  0  0  0  0  0  0  0  0
    6.4946  -12.7744   17.6768 H   0  0  0  0  0  0  0  0  0  0  0  0
    5.9938  -14.3759   18.2525 H   0  0  0  0  0  0  0  0  0  0  0  0
    8.4932  -12.9157   18.9080 H   0  0  0  0  0  0  0  0  0  0  0  0
    8.0650  -14.5885   19.1425 H   0  0  0  0  0  0  0  0  0  0  0  0
    7.6427  -12.3260   21.1880 H   0  0  0  0  0  0  0  0  0  0  0  0
    8.1573  -13.8978   21.1184 H   0  0  0  0  0  0  0  0  0  0  0  0
    4.4643  -13.0714   21.1783 H   0  0  0  0  0  0  0  0  0  0  0  0
    5.8425  -15.5737   23.5195 H   0  0  0  0  0  0  0  0  0  0  0  0
    3.2791  -19.3099   23.2607 H   0  0  0  0  0  0  0  0  0  0  0  0
    3.7765  -19.9566   24.7415 H   0  0  0  0  0  0  0  0  0  0  0  0
    2.0682  -19.5949   24.4952 H   0  0  0  0  0  0  0  0  0  0  0  0
    3.7019  -17.5867   27.7553 H   0  0  0  0  0  0  0  0  0  0  0  0
    3.8804  -15.9573   27.1533 H   0  0  0  0  0  0  0  0  0  0  0  0
    2.2934  -16.7797   27.3819 H   0  0  0  0  0  0  0  0  0  0  0  0
    4.1898  -20.1065   26.9243 H   0  0  0  0  0  0  0  0  0  0  0  0
    2.4386  -21.2142   28.3334 H   0  0  0  0  0  0  0  0  0  0  0  0
    0.2140  -19.9851   28.2555 H   0  0  0  0  0  0  0  0  0  0  0  0
  1  2  1  0
  2  3  1  0
  3  4  1  0
  4  5  1  0
  3  6  1  0
  6  7  2  0
  6  8  1  0
  8  9  1  0
  9 10  1  0
 10 11  1  0
 11 12  1  0
 12 13  1  0
 13 14  1  0
 14 15  1  0
 15 16  2  0
 15 17  1  0
 17 18  1  0
 17 19  1  0
 17 20  1  0
 20 21  2  0
 21 22  1  0
 22 23  1  0
 23 24  2  0
 13  9  1  0
 24 20  1  0
  1 25  1  0
  1 26  1  0
  1 27  1  0
  2 28  1  0
  2 29  1  0
  3 30  1  0
  4 31  1  0
  4 32  1  0
  5 33  1  0
  5 34  1  0
  5 35  1  0
  8 36  1  0
  9 37  1  0
 10 38  1  0
 10 39  1  0
 11 40  1  0
 11 41  1  0
 12 42  1  0
 12 43  1  0
 13 44  1  0
 14 45  1  0
 18 46  1  0
 18 47  1  0
 18 48  1  0
 19 49  1  0
 19 50  1  0
 19 51  1  0
 21 52  1  0
 22 53  1  0
 23 54  1  0
M  END
>  <Energy>  (1200) 
1233.5217899296574

>  <compound_id>  (1200) 
73150

>  <target_id>  (1200) 
1

>  <reference_id>  (1200) 
27

>  <inspiration_ids>  (1200) 
[115, 27]

>  <energy_score>  (1200) 
1163.011531895024

>  <distance_score>  (1200) 
12.605205880723744

>  <path>  (1200) 
/opt/xchem-fragalysis-2/maxwin/BulkDock/SCRATCH/511016/C73150-P27/C73150-P27.minimised.mol

>  <scratch_subdir>  (1200) 
/opt/xchem-fragalysis-2/maxwin/BulkDock/SCRATCH/511016/C73150-P27

>  <fragmenstein_runtime>  (1200) 
33.33771300315857

>  <fragmenstein_outcome>  (1200) 
too moved

>  <fragmenstein_mode>  (1200) 
expansion

>  <fragmenstein_error>  (1200) 


$$$$
C44126-P115
     RDKit          3D

 54 55  0  0  0  0  0  0  0  0999 V2000
    9.5938  -10.1590   20.4914 C   0  0  0  0  0  0  0  0  0  0  0  0
    8.5841  -11.0030   21.2891 C   0  0  0  0  0  0  0  0  0  0  0  0
    8.7404  -11.0627   22.8522 C   0  0  0  0  0  0  0  0  0  0  0  0
    9.8726  -11.9818   23.2821 C   0  0  0  0  0  0  0  0  0  0  0  0
   11.2452  -11.5454   22.7506 C   0  0  0  0  0  0  0  0  0  0  0  0
    7.3163  -10.9913   23.5858 C   0  0  0  0  0  0  0  0  0  0  0  0
    6.6633  -10.0521   23.2104 O   0  0  0  0  0  0  0  0  0  0  0  0
    7.0333  -11.9969   24.5987 N   0  0  0  0  0  0  0  0  0  0  0  0
    5.7956  -12.1356   25.6398 C   0  0  0  0  0  0  0  0  0  0  0  0
    6.2524  -11.0064   26.6228 C   0  0  0  0  0  0  0  0  0  0  0  0
    7.2941  -11.7610   27.3671 C   0  0  0  0  0  0  0  0  0  0  0  0
    6.9745  -13.2151   26.9768 C   0  0  0  0  0  0  0  0  0  0  0  0
    5.0607  -13.5044   26.8936 C   0  0  0  0  0  0  0  0  0  0  0  0
    4.0160  -15.2462   26.7674 N   0  0  0  0  0  0  0  0  0  0  0  0
    2.5652  -15.9987   27.8284 C   0  0  0  0  0  0  0  0  0  0  0  0
    2.2599  -15.2681   28.5895 O   0  0  0  0  0  0  0  0  0  0  0  0
    1.2766  -17.5800   27.9436 C   0  0  0  0  0  0  0  0  0  0  0  0
    0.3111  -18.8706   29.3595 C   0  0  0  0  0  0  0  0  0  0  0  0
   -0.8311  -20.4910   29.0280 C   0  0  0  0  0  0  0  0  0  0  0  0
   -1.7814  -21.7591   29.7347 N   0  0  0  0  0  0  0  0  0  0  0  0
   -1.3517  -23.3015   28.8291 C   0  0  0  0  0  0  0  0  0  0  0  0
   -2.4270  -24.3064   28.8072 C   0  0  0  0  0  0  0  0  0  0  0  0
   -3.5689  -23.7838   29.5979 N   0  0  0  0  0  0  0  0  0  0  0  0
   -3.5331  -22.3501   30.1170 C   0  0  0  0  0  0  0  0  0  0  0  0
   10.1951  -10.8062   19.8443 H   0  0  0  0  0  0  0  0  0  0  0  0
   10.2761   -9.5829   21.1178 H   0  0  0  0  0  0  0  0  0  0  0  0
    9.0496   -9.4713   19.8400 H   0  0  0  0  0  0  0  0  0  0  0  0
    8.6181  -12.0313   20.9052 H   0  0  0  0  0  0  0  0  0  0  0  0
    7.5783  -10.6530   21.0269 H   0  0  0  0  0  0  0  0  0  0  0  0
    9.1460  -10.1069   23.1765 H   0  0  0  0  0  0  0  0  0  0  0  0
    9.9255  -11.9991   24.3776 H   0  0  0  0  0  0  0  0  0  0  0  0
    9.6774  -13.0127   22.9690 H   0  0  0  0  0  0  0  0  0  0  0  0
   11.3452  -11.7385   21.6803 H   0  0  0  0  0  0  0  0  0  0  0  0
   12.0263  -12.1306   23.2484 H   0  0  0  0  0  0  0  0  0  0  0  0
   11.4442  -10.4898   22.9575 H   0  0  0  0  0  0  0  0  0  0  0  0
    7.8451  -12.5900   24.7089 H   0  0  0  0  0  0  0  0  0  0  0  0
    5.0945  -11.6788   24.9392 H   0  0  0  0  0  0  0  0  0  0  0  0
    6.6576  -10.1137   26.1350 H   0  0  0  0  0  0  0  0  0  0  0  0
    5.4675  -10.6700   27.3055 H   0  0  0  0  0  0  0  0  0  0  0  0
    7.2165  -11.5924   28.4452 H   0  0  0  0  0  0  0  0  0  0  0  0
    8.3084  -11.4912   27.0530 H   0  0  0  0  0  0  0  0  0  0  0  0
    7.7486  -13.7915   27.4895 H   0  0  0  0  0  0  0  0  0  0  0  0
    7.4246  -13.5405   26.0573 H   0  0  0  0  0  0  0  0  0  0  0  0
    4.8748  -13.0999   27.8935 H   0  0  0  0  0  0  0  0  0  0  0  0
    4.2132  -15.8613   26.0538 H   0  0  0  0  0  0  0  0  0  0  0  0
    0.8042  -16.8040   28.5610 H   0  0  0  0  0  0  0  0  0  0  0  0
    0.5494  -17.7156   27.1702 H   0  0  0  0  0  0  0  0  0  0  0  0
    0.1851  -18.3473   30.3333 H   0  0  0  0  0  0  0  0  0  0  0  0
    0.9164  -19.5084   30.0582 H   0  0  0  0  0  0  0  0  0  0  0  0
   -1.0804  -20.5965   27.9840 H   0  0  0  0  0  0  0  0  0  0  0  0
   -0.0451  -21.1577   29.2573 H   0  0  0  0  0  0  0  0  0  0  0  0
   -0.7172  -22.9336   28.0897 H   0  0  0  0  0  0  0  0  0  0  0  0
   -2.6178  -25.1763   28.2044 H   0  0  0  0  0  0  0  0  0  0  0  0
   -3.9683  -22.5320   31.1105 H   0  0  0  0  0  0  0  0  0  0  0  0
  1  2  1  0
  2  3  1  0
  3  4  1  0
  4  5  1  0
  3  6  1  0
  6  7  2  0
  6  8  1  0
  8  9  1  0
  9 10  1  0
 10 11  1  0
 11 12  1  0
 12 13  1  0
 13 14  1  0
 14 15  1  0
 15 16  2  0
 15 17  1  0
 17 18  1  0
 18 19  1  0
 19 20  1  0
 20 21  1  0
 21 22  2  0
 22 23  1  0
 23 24  2  0
 13  9  1  0
 24 20  1  0
  1 25  1  0
  1 26  1  0
  1 27  1  0
  2 28  1  0
  2 29  1  0
  3 30  1  0
  4 31  1  0
  4 32  1  0
  5 33  1  0
  5 34  1  0
  5 35  1  0
  8 36  1  0
  9 37  1  0
 10 38  1  0
 10 39  1  0
 11 40  1  0
 11 41  1  0
 12 42  1  0
 12 43  1  0
 13 44  1  0
 14 45  1  0
 17 46  1  0
 17 47  1  0
 18 48  1  0
 18 49  1  0
 19 50  1  0
 19 51  1  0
 21 52  1  0
 22 53  1  0
 24 54  1  0
M  END
>  <Energy>  (1201) 
1048.6476376904354

>  <compound_id>  (1201) 
44126

>  <target_id>  (1201) 
1

>  <reference_id>  (1201) 
115

>  <inspiration_ids>  (1201) 
[115, 27]

>  <energy_score>  (1201) 
1022.8070028330408

>  <distance_score>  (1201) 
12.427133655151513

>  <path>  (1201) 
/opt/xchem-fragalysis-2/maxwin/BulkDock/SCRATCH/511016/C44126-P115/C44126-P115.minimised.mol

>  <scratch_subdir>  (1201) 
/opt/xchem-fragalysis-2/maxwin/BulkDock/SCRATCH/511016/C44126-P115

>  <fragmenstein_runtime>  (1201) 
43.195595026016235

>  <fragmenstein_outcome>  (1201) 
too moved

>  <fragmenstein_mode>  (1201) 
expansion

>  <fragmenstein_error>  (1201) 


$$$$
C44126-P27
     RDKit          3D

 54 55  0  0  0  0  0  0  0  0999 V2000
   12.0417   -7.5146   24.6523 C   0  0  0  0  0  0  0  0  0  0  0  0
   11.1763   -8.7792   24.6777 C   0  0  0  0  0  0  0  0  0  0  0  0
   11.5544   -9.8998   23.6921 C   0  0  0  0  0  0  0  0  0  0  0  0
   11.8200   -9.4026   22.2269 C   0  0  0  0  0  0  0  0  0  0  0  0
   13.1579   -8.6882   22.0076 C   0  0  0  0  0  0  0  0  0  0  0  0
   10.5692  -11.1808   23.6605 C   0  0  0  0  0  0  0  0  0  0  0  0
    9.6984  -11.2275   22.8375 O   0  0  0  0  0  0  0  0  0  0  0  0
   10.9974  -12.1593   24.6402 N   0  0  0  0  0  0  0  0  0  0  0  0
   10.5699  -13.5570   24.8684 C   0  0  0  0  0  0  0  0  0  0  0  0
   10.9188  -14.4512   23.6890 C   0  0  0  0  0  0  0  0  0  0  0  0
   11.2816  -15.7626   24.3863 C   0  0  0  0  0  0  0  0  0  0  0  0
   10.6745  -15.7097   25.8163 C   0  0  0  0  0  0  0  0  0  0  0  0
    9.6824  -14.4991   25.8599 C   0  0  0  0  0  0  0  0  0  0  0  0
    8.3171  -15.1050   25.5859 N   0  0  0  0  0  0  0  0  0  0  0  0
    7.7712  -16.1366   24.3364 C   0  0  0  0  0  0  0  0  0  0  0  0
    8.4973  -16.5918   23.5176 O   0  0  0  0  0  0  0  0  0  0  0  0
    5.6091  -16.3789   24.3720 C   0  0  0  0  0  0  0  0  0  0  0  0
    3.8245  -17.3804   25.2269 C   0  0  0  0  0  0  0  0  0  0  0  0
    2.4589  -17.5154   26.8305 C   0  0  0  0  0  0  0  0  0  0  0  0
    0.6990  -17.8447   27.6457 N   0  0  0  0  0  0  0  0  0  0  0  0
    0.1510  -18.8126   29.1846 C   0  0  0  0  0  0  0  0  0  0  0  0
   -0.6955  -20.0725   28.7851 C   0  0  0  0  0  0  0  0  0  0  0  0
   -1.1782  -19.5997   27.2103 N   0  0  0  0  0  0  0  0  0  0  0  0
   -0.6810  -18.3432   26.8711 C   0  0  0  0  0  0  0  0  0  0  0  0
   11.6787   -6.8073   25.4055 H   0  0  0  0  0  0  0  0  0  0  0  0
   12.0265   -7.0067   23.6917 H   0  0  0  0  0  0  0  0  0  0  0  0
   13.0789   -7.7559   24.9051 H   0  0  0  0  0  0  0  0  0  0  0  0
   10.1265   -8.5042   24.5778 H   0  0  0  0  0  0  0  0  0  0  0  0
   11.2408   -9.2014   25.6900 H   0  0  0  0  0  0  0  0  0  0  0  0
   12.5245  -10.2945   24.0286 H   0  0  0  0  0  0  0  0  0  0  0  0
   11.0100   -8.7625   21.8810 H   0  0  0  0  0  0  0  0  0  0  0  0
   11.8083  -10.2772   21.5633 H   0  0  0  0  0  0  0  0  0  0  0  0
   13.7274   -9.1786   21.2117 H   0  0  0  0  0  0  0  0  0  0  0  0
   13.7957   -8.7153   22.8952 H   0  0  0  0  0  0  0  0  0  0  0  0
   13.0059   -7.6447   21.7174 H   0  0  0  0  0  0  0  0  0  0  0  0
   11.8218  -11.8110   25.1175 H   0  0  0  0  0  0  0  0  0  0  0  0
   11.4770  -13.6585   25.4976 H   0  0  0  0  0  0  0  0  0  0  0  0
   11.7604  -14.0832   23.0924 H   0  0  0  0  0  0  0  0  0  0  0  0
   10.0589  -14.5637   23.0222 H   0  0  0  0  0  0  0  0  0  0  0  0
   12.3704  -15.8685   24.4633 H   0  0  0  0  0  0  0  0  0  0  0  0
   10.9252  -16.6280   23.8216 H   0  0  0  0  0  0  0  0  0  0  0  0
   11.4858  -15.5413   26.5381 H   0  0  0  0  0  0  0  0  0  0  0  0
   10.2266  -16.6669   26.0939 H   0  0  0  0  0  0  0  0  0  0  0  0
    9.6311  -14.0624   26.8624 H   0  0  0  0  0  0  0  0  0  0  0  0
    7.5597  -14.9166   26.1937 H   0  0  0  0  0  0  0  0  0  0  0  0
    5.4033  -15.3809   24.9312 H   0  0  0  0  0  0  0  0  0  0  0  0
    5.0045  -15.8269   23.6697 H   0  0  0  0  0  0  0  0  0  0  0  0
    3.7942  -18.4791   25.2023 H   0  0  0  0  0  0  0  0  0  0  0  0
    3.7646  -16.5709   26.0391 H   0  0  0  0  0  0  0  0  0  0  0  0
    2.8871  -18.4653   27.0005 H   0  0  0  0  0  0  0  0  0  0  0  0
    2.7603  -16.8230   27.6363 H   0  0  0  0  0  0  0  0  0  0  0  0
    0.6001  -18.4230   30.1067 H   0  0  0  0  0  0  0  0  0  0  0  0
   -1.1037  -20.9925   29.1754 H   0  0  0  0  0  0  0  0  0  0  0  0
   -1.0194  -17.8512   26.0096 H   0  0  0  0  0  0  0  0  0  0  0  0
  1  2  1  0
  2  3  1  0
  3  4  1  0
  4  5  1  0
  3  6  1  0
  6  7  2  0
  6  8  1  0
  8  9  1  0
  9 10  1  0
 10 11  1  0
 11 12  1  0
 12 13  1  0
 13 14  1  0
 14 15  1  0
 15 16  2  0
 15 17  1  0
 17 18  1  0
 18 19  1  0
 19 20  1  0
 20 21  1  0
 21 22  2  0
 22 23  1  0
 23 24  2  0
 13  9  1  0
 24 20  1  0
  1 25  1  0
  1 26  1  0
  1 27  1  0
  2 28  1  0
  2 29  1  0
  3 30  1  0
  4 31  1  0
  4 32  1  0
  5 33  1  0
  5 34  1  0
  5 35  1  0
  8 36  1  0
  9 37  1  0
 10 38  1  0
 10 39  1  0
 11 40  1  0
 11 41  1  0
 12 42  1  0
 12 43  1  0
 13 44  1  0
 14 45  1  0
 17 46  1  0
 17 47  1  0
 18 48  1  0
 18 49  1  0
 19 50  1  0
 19 51  1  0
 21 52  1  0
 22 53  1  0
 24 54  1  0
M  END
>  <Energy>  (1202) 
838.00996734985415

>  <compound_id>  (1202) 
44126

>  <target_id>  (1202) 
1

>  <reference_id>  (1202) 
27

>  <inspiration_ids>  (1202) 
[115, 27]

>  <energy_score>  (1202) 
812.1693324924736

>  <distance_score>  (1202) 
12.31048628122038

>  <path>  (1202) 
/opt/xchem-fragalysis-2/maxwin/BulkDock/SCRATCH/511016/C44126-P27/C44126-P27.minimised.mol

>  <scratch_subdir>  (1202) 
/opt/xchem-fragalysis-2/maxwin/BulkDock/SCRATCH/511016/C44126-P27

>  <fragmenstein_runtime>  (1202) 
42.78047490119934

>  <fragmenstein_outcome>  (1202) 
too moved

>  <fragmenstein_mode>  (1202) 
expansion

>  <fragmenstein_error>  (1202) 


$$$$
C44142-P115
     RDKit          3D

 48 49  0  0  0  0  0  0  0  0999 V2000
   14.9396   -1.7284   20.5011 C   0  0  0  0  0  0  0  0  0  0  0  0
   14.9057   -3.1072   21.1529 C   0  0  0  0  0  0  0  0  0  0  0  0
   14.2068   -4.2401   20.3684 C   0  0  0  0  0  0  0  0  0  0  0  0
   14.6556   -4.2724   18.8803 C   0  0  0  0  0  0  0  0  0  0  0  0
   13.7098   -3.5836   17.9021 C   0  0  0  0  0  0  0  0  0  0  0  0
   14.5388   -5.6167   21.0740 C   0  0  0  0  0  0  0  0  0  0  0  0
   15.4498   -6.2683   20.6482 O   0  0  0  0  0  0  0  0  0  0  0  0
   13.6427   -5.8612   22.1808 N   0  0  0  0  0  0  0  0  0  0  0  0
   13.5023   -7.0317   23.0742 C   0  0  0  0  0  0  0  0  0  0  0  0
   12.8972   -8.2269   22.3087 C   0  0  0  0  0  0  0  0  0  0  0  0
   12.2659   -9.3412   23.1683 C   0  0  0  0  0  0  0  0  0  0  0  0
   11.2843   -8.7568   24.1926 C   0  0  0  0  0  0  0  0  0  0  0  0
   10.3892   -9.7196   24.8634 N   0  0  0  0  0  0  0  0  0  0  0  0
    9.1316  -10.3169   24.4281 C   0  0  0  0  0  0  0  0  0  0  0  0
    8.5523  -10.2348   23.3841 O   0  0  0  0  0  0  0  0  0  0  0  0
    8.3929  -11.0824   25.5069 C   0  0  0  0  0  0  0  0  0  0  0  0
    7.4619  -12.0074   25.2475 N   0  0  0  0  0  0  0  0  0  0  0  0
    6.8116  -12.2615   26.4246 C   0  0  0  0  0  0  0  0  0  0  0  0
    7.3463  -11.5327   27.4453 C   0  0  0  0  0  0  0  0  0  0  0  0
    8.3745  -10.8340   26.8683 N   0  0  0  0  0  0  0  0  0  0  0  0
   12.0777   -7.8296   25.1195 C   0  0  0  0  0  0  0  0  0  0  0  0
   12.7370   -6.6596   24.3571 C   0  0  0  0  0  0  0  0  0  0  0  0
   15.4485   -1.0227   21.1668 H   0  0  0  0  0  0  0  0  0  0  0  0
   15.4871   -1.7299   19.5554 H   0  0  0  0  0  0  0  0  0  0  0  0
   13.9375   -1.3444   20.3311 H   0  0  0  0  0  0  0  0  0  0  0  0
   15.9423   -3.4050   21.3595 H   0  0  0  0  0  0  0  0  0  0  0  0
   14.4261   -3.0157   22.1359 H   0  0  0  0  0  0  0  0  0  0  0  0
   13.1208   -4.0949   20.4016 H   0  0  0  0  0  0  0  0  0  0  0  0
   14.7468   -5.3066   18.5535 H   0  0  0  0  0  0  0  0  0  0  0  0
   15.6627   -3.8527   18.7732 H   0  0  0  0  0  0  0  0  0  0  0  0
   13.5961   -2.5226   18.1281 H   0  0  0  0  0  0  0  0  0  0  0  0
   12.7268   -4.0586   17.9124 H   0  0  0  0  0  0  0  0  0  0  0  0
   14.1042   -3.6659   16.8838 H   0  0  0  0  0  0  0  0  0  0  0  0
   12.9337   -5.1311   22.2010 H   0  0  0  0  0  0  0  0  0  0  0  0
   14.5225   -7.3204   23.3574 H   0  0  0  0  0  0  0  0  0  0  0  0
   12.1207   -7.8631   21.6309 H   0  0  0  0  0  0  0  0  0  0  0  0
   13.6689   -8.6676   21.6653 H   0  0  0  0  0  0  0  0  0  0  0  0
   13.0523   -9.9088   23.6806 H   0  0  0  0  0  0  0  0  0  0  0  0
   11.7473  -10.0491   22.5106 H   0  0  0  0  0  0  0  0  0  0  0  0
   10.5787   -8.1516   23.6245 H   0  0  0  0  0  0  0  0  0  0  0  0
   10.6210  -10.0710   25.7832 H   0  0  0  0  0  0  0  0  0  0  0  0
    5.9626  -12.9146   26.4639 H   0  0  0  0  0  0  0  0  0  0  0  0
    7.0899  -11.4269   28.4907 H   0  0  0  0  0  0  0  0  0  0  0  0
    8.9291  -10.1314   27.3344 H   0  0  0  0  0  0  0  0  0  0  0  0
   11.4167   -7.4196   25.8928 H   0  0  0  0  0  0  0  0  0  0  0  0
   12.8494   -8.4041   25.6471 H   0  0  0  0  0  0  0  0  0  0  0  0
   13.4194   -6.1337   25.0376 H   0  0  0  0  0  0  0  0  0  0  0  0
   11.9607   -5.9243   24.1267 H   0  0  0  0  0  0  0  0  0  0  0  0
  1  2  1  0
  2  3  1  0
  3  4  1  0
  4  5  1  0
  3  6  1  0
  6  7  2  0
  6  8  1  0
  8  9  1  0
  9 10  1  0
 10 11  1  0
 11 12  1  0
 12 13  1  0
 13 14  1  0
 14 15  2  0
 14 16  1  0
 16 17  2  0
 17 18  1  0
 18 19  2  0
 19 20  1  0
 12 21  1  0
 21 22  1  0
 22  9  1  0
 20 16  1  0
  1 23  1  0
  1 24  1  0
  1 25  1  0
  2 26  1  0
  2 27  1  0
  3 28  1  0
  4 29  1  0
  4 30  1  0
  5 31  1  0
  5 32  1  0
  5 33  1  0
  8 34  1  0
  9 35  1  0
 10 36  1  0
 10 37  1  0
 11 38  1  0
 11 39  1  0
 12 40  1  0
 13 41  1  0
 18 42  1  0
 19 43  1  0
 20 44  1  0
 21 45  1  0
 21 46  1  0
 22 47  1  0
 22 48  1  0
M  END
>  <Energy>  (1203) 
28.64617324757257

>  <compound_id>  (1203) 
44142

>  <target_id>  (1203) 
1

>  <reference_id>  (1203) 
115

>  <inspiration_ids>  (1203) 
[115, 27]

>  <energy_score>  (1203) 
14.484385109992559

>  <distance_score>  (1203) 
13.376359383699372

>  <path>  (1203) 
/opt/xchem-fragalysis-2/maxwin/BulkDock/SCRATCH/511016/C44142-P115/C44142-P115.minimised.mol

>  <scratch_subdir>  (1203) 
/opt/xchem-fragalysis-2/maxwin/BulkDock/SCRATCH/511016/C44142-P115

>  <fragmenstein_runtime>  (1203) 
32.274606227874756

>  <fragmenstein_outcome>  (1203) 
too moved

>  <fragmenstein_mode>  (1203) 
expansion

>  <fragmenstein_error>  (1203) 


$$$$
C44142-P27
     RDKit          3D

 48 49  0  0  0  0  0  0  0  0999 V2000
   11.8701  -11.4124   19.0386 C   0  0  0  0  0  0  0  0  0  0  0  0
   10.7765  -12.3083   19.5329 C   0  0  0  0  0  0  0  0  0  0  0  0
    9.7190  -12.6549   18.4542 C   0  0  0  0  0  0  0  0  0  0  0  0
    8.8722  -11.4533   17.9683 C   0  0  0  0  0  0  0  0  0  0  0  0
    8.3067  -10.5935   19.0972 C   0  0  0  0  0  0  0  0  0  0  0  0
    8.8134  -13.7658   19.0243 C   0  0  0  0  0  0  0  0  0  0  0  0
    8.7072  -13.8413   20.2152 O   0  0  0  0  0  0  0  0  0  0  0  0
    8.2518  -14.5755   17.9807 N   0  0  0  0  0  0  0  0  0  0  0  0
    7.3095  -15.6737   18.0347 C   0  0  0  0  0  0  0  0  0  0  0  0
    6.5859  -15.9741   16.7335 C   0  0  0  0  0  0  0  0  0  0  0  0
    5.4984  -17.0458   16.9837 C   0  0  0  0  0  0  0  0  0  0  0  0
    5.9662  -18.3572   17.6894 C   0  0  0  0  0  0  0  0  0  0  0  0
    4.8023  -19.1832   18.1395 N   0  0  0  0  0  0  0  0  0  0  0  0
    4.7331  -20.3207   19.0388 C   0  0  0  0  0  0  0  0  0  0  0  0
    5.6033  -20.9361   19.5871 O   0  0  0  0  0  0  0  0  0  0  0  0
    3.3180  -20.7005   19.3954 C   0  0  0  0  0  0  0  0  0  0  0  0
    2.1999  -20.3065   18.7965 N   0  0  0  0  0  0  0  0  0  0  0  0
    1.1485  -20.8254   19.5381 C   0  0  0  0  0  0  0  0  0  0  0  0
    1.6147  -21.5677   20.5916 C   0  0  0  0  0  0  0  0  0  0  0  0
    2.9785  -21.4856   20.4936 N   0  0  0  0  0  0  0  0  0  0  0  0
    6.9297  -18.0158   18.8520 C   0  0  0  0  0  0  0  0  0  0  0  0
    7.9866  -16.9558   18.5089 C   0  0  0  0  0  0  0  0  0  0  0  0
   11.3963  -10.4892   18.7581 H   0  0  0  0  0  0  0  0  0  0  0  0
   12.6073  -11.2233   19.8238 H   0  0  0  0  0  0  0  0  0  0  0  0
   12.3814  -11.8533   18.1782 H   0  0  0  0  0  0  0  0  0  0  0  0
   11.2401  -13.2400   19.8846 H   0  0  0  0  0  0  0  0  0  0  0  0
   10.3074  -11.8603   20.4171 H   0  0  0  0  0  0  0  0  0  0  0  0
   10.2494  -13.0763   17.5893 H   0  0  0  0  0  0  0  0  0  0  0  0
    9.4643  -10.8510   17.2760 H   0  0  0  0  0  0  0  0  0  0  0  0
    8.0259  -11.8288   17.3794 H   0  0  0  0  0  0  0  0  0  0  0  0
    9.0814  -10.0262   19.6187 H   0  0  0  0  0  0  0  0  0  0  0  0
    7.7974  -11.2169   19.8399 H   0  0  0  0  0  0  0  0  0  0  0  0
    7.5599   -9.8936   18.7244 H   0  0  0  0  0  0  0  0  0  0  0  0
    8.4887  -14.1677   17.0824 H   0  0  0  0  0  0  0  0  0  0  0  0
    6.5645  -15.3705   18.7754 H   0  0  0  0  0  0  0  0  0  0  0  0
    7.2877  -16.3262   15.9677 H   0  0  0  0  0  0  0  0  0  0  0  0
    6.1148  -15.0662   16.3387 H   0  0  0  0  0  0  0  0  0  0  0  0
    5.0229  -17.3058   16.0299 H   0  0  0  0  0  0  0  0  0  0  0  0
    4.7087  -16.5876   17.5948 H   0  0  0  0  0  0  0  0  0  0  0  0
    6.5089  -18.9725   16.9620 H   0  0  0  0  0  0  0  0  0  0  0  0
    3.8654  -18.9718   17.7989 H   0  0  0  0  0  0  0  0  0  0  0  0
    0.1206  -20.6198   19.2692 H   0  0  0  0  0  0  0  0  0  0  0  0
    1.1170  -22.0977   21.3890 H   0  0  0  0  0  0  0  0  0  0  0  0
    3.6573  -21.8737   21.1317 H   0  0  0  0  0  0  0  0  0  0  0  0
    6.3331  -17.6687   19.7018 H   0  0  0  0  0  0  0  0  0  0  0  0
    7.4354  -18.9292   19.1867 H   0  0  0  0  0  0  0  0  0  0  0  0
    8.6576  -17.3430   17.7309 H   0  0  0  0  0  0  0  0  0  0  0  0
    8.6214  -16.7709   19.3788 H   0  0  0  0  0  0  0  0  0  0  0  0
  1  2  1  0
  2  3  1  0
  3  4  1  0
  4  5  1  0
  3  6  1  0
  6  7  2  0
  6  8  1  0
  8  9  1  0
  9 10  1  0
 10 11  1  0
 11 12  1  0
 12 13  1  0
 13 14  1  0
 14 15  2  0
 14 16  1  0
 16 17  2  0
 17 18  1  0
 18 19  2  0
 19 20  1  0
 12 21  1  0
 21 22  1  0
 22  9  1  0
 20 16  1  0
  1 23  1  0
  1 24  1  0
  1 25  1  0
  2 26  1  0
  2 27  1  0
  3 28  1  0
  4 29  1  0
  4 30  1  0
  5 31  1  0
  5 32  1  0
  5 33  1  0
  8 34  1  0
  9 35  1  0
 10 36  1  0
 10 37  1  0
 11 38  1  0
 11 39  1  0
 12 40  1  0
 13 41  1  0
 18 42  1  0
 19 43  1  0
 20 44  1  0
 21 45  1  0
 21 46  1  0
 22 47  1  0
 22 48  1  0
M  END
>  <Energy>  (1204) 
3.6491262043145443

>  <compound_id>  (1204) 
44142

>  <target_id>  (1204) 
1

>  <reference_id>  (1204) 
27

>  <inspiration_ids>  (1204) 
[115, 27]

>  <energy_score>  (1204) 
-10.512661933263985

>  <distance_score>  (1204) 
14.683769811035427

>  <path>  (1204) 
/opt/xchem-fragalysis-2/maxwin/BulkDock/SCRATCH/511016/C44142-P27/C44142-P27.minimised.mol

>  <scratch_subdir>  (1204) 
/opt/xchem-fragalysis-2/maxwin/BulkDock/SCRATCH/511016/C44142-P27

>  <fragmenstein_runtime>  (1204) 
26.005966186523438

>  <fragmenstein_outcome>  (1204) 
too moved

>  <fragmenstein_mode>  (1204) 
expansion

>  <fragmenstein_error>  (1204) 


$$$$
C44146-P115
     RDKit          3D

 45 46  0  0  0  0  0  0  0  0999 V2000
    7.9706   -9.2953   19.6064 C   0  0  0  0  0  0  0  0  0  0  0  0
    6.9620   -8.1494   19.5511 C   0  0  0  0  0  0  0  0  0  0  0  0
    7.3481   -6.5173   19.1315 C   0  0  0  0  0  0  0  0  0  0  0  0
    9.4962   -6.1051   19.2278 C   0  0  0  0  0  0  0  0  0  0  0  0
   10.8065   -5.1469   17.9531 C   0  0  0  0  0  0  0  0  0  0  0  0
    6.1994   -5.7821   20.1519 C   0  0  0  0  0  0  0  0  0  0  0  0
    6.5135   -4.9730   20.9785 O   0  0  0  0  0  0  0  0  0  0  0  0
    4.8937   -6.4036   19.8668 N   0  0  0  0  0  0  0  0  0  0  0  0
    3.6151   -6.2992   20.5606 C   0  0  0  0  0  0  0  0  0  0  0  0
    2.4750   -7.0211   19.8863 C   0  0  0  0  0  0  0  0  0  0  0  0
    2.2599   -8.5397   20.7169 C   0  0  0  0  0  0  0  0  0  0  0  0
    1.4784   -8.6453   22.3785 N   0  0  0  0  0  0  0  0  0  0  0  0
    0.0871   -8.6428   22.1771 C   0  0  0  0  0  0  0  0  0  0  0  0
   -0.5752   -7.6107   22.1624 O   0  0  0  0  0  0  0  0  0  0  0  0
   -0.6135   -9.9549   22.0910 C   0  0  0  0  0  0  0  0  0  0  0  0
   -0.1024  -11.1659   21.9091 N   0  0  0  0  0  0  0  0  0  0  0  0
   -1.1752  -12.0580   21.9429 C   0  0  0  0  0  0  0  0  0  0  0  0
   -2.3399  -11.4072   22.2523 C   0  0  0  0  0  0  0  0  0  0  0  0
   -1.9805  -10.0884   22.3270 N   0  0  0  0  0  0  0  0  0  0  0  0
    2.6957   -8.5647   21.5327 C   0  0  0  0  0  0  0  0  0  0  0  0
    3.6396   -7.0855   21.8492 C   0  0  0  0  0  0  0  0  0  0  0  0
    7.5063  -10.1404   20.1305 H   0  0  0  0  0  0  0  0  0  0  0  0
    8.2022   -9.6756   18.6086 H   0  0  0  0  0  0  0  0  0  0  0  0
    8.8898   -9.0739   20.1472 H   0  0  0  0  0  0  0  0  0  0  0  0
    6.4894   -8.1427   20.5421 H   0  0  0  0  0  0  0  0  0  0  0  0
    6.1915   -8.4706   18.8376 H   0  0  0  0  0  0  0  0  0  0  0  0
    6.9162   -6.3798   18.1131 H   0  0  0  0  0  0  0  0  0  0  0  0
    9.7472   -5.4111   20.0378 H   0  0  0  0  0  0  0  0  0  0  0  0
    9.5800   -7.1826   19.6370 H   0  0  0  0  0  0  0  0  0  0  0  0
   11.0740   -5.5563   16.9211 H   0  0  0  0  0  0  0  0  0  0  0  0
   10.7135   -4.2312   17.3452 H   0  0  0  0  0  0  0  0  0  0  0  0
   11.8091   -4.9647   18.4834 H   0  0  0  0  0  0  0  0  0  0  0  0
    4.9753   -6.9822   19.0430 H   0  0  0  0  0  0  0  0  0  0  0  0
    3.4227   -5.2358   20.7287 H   0  0  0  0  0  0  0  0  0  0  0  0
    1.5379   -6.4599   19.9953 H   0  0  0  0  0  0  0  0  0  0  0  0
    2.6557   -7.2310   18.8266 H   0  0  0  0  0  0  0  0  0  0  0  0
    2.4123   -9.5233   20.0171 H   0  0  0  0  0  0  0  0  0  0  0  0
    1.2098   -8.5825   20.2082 H   0  0  0  0  0  0  0  0  0  0  0  0
   -1.0266  -13.1193   21.7814 H   0  0  0  0  0  0  0  0  0  0  0  0
   -3.3562  -11.7448   22.3965 H   0  0  0  0  0  0  0  0  0  0  0  0
   -2.5871   -9.3021   22.5188 H   0  0  0  0  0  0  0  0  0  0  0  0
    3.1409   -8.7956   22.5865 H   0  0  0  0  0  0  0  0  0  0  0  0
    3.4846   -9.5510   21.4823 H   0  0  0  0  0  0  0  0  0  0  0  0
    4.6470   -7.3734   22.1739 H   0  0  0  0  0  0  0  0  0  0  0  0
    3.1294   -6.5469   22.6583 H   0  0  0  0  0  0  0  0  0  0  0  0
  1  2  1  0
  2  3  1  0
  3  4  1  0
  4  5  1  0
  3  6  1  0
  6  7  2  0
  6  8  1  0
  8  9  1  0
  9 10  1  0
 10 11  1  0
 11 12  1  0
 12 13  1  0
 13 14  2  0
 13 15  1  0
 15 16  2  0
 16 17  1  0
 17 18  2  0
 18 19  1  0
 12 20  1  0
 20 21  1  0
 21  9  1  0
 19 15  1  0
  1 22  1  0
  1 23  1  0
  1 24  1  0
  2 25  1  0
  2 26  1  0
  3 27  1  0
  4 28  1  0
  4 29  1  0
  5 30  1  0
  5 31  1  0
  5 32  1  0
  8 33  1  0
  9 34  1  0
 10 35  1  0
 10 36  1  0
 11 37  1  0
 11 38  1  0
 17 39  1  0
 18 40  1  0
 19 41  1  0
 20 42  1  0
 20 43  1  0
 21 44  1  0
 21 45  1  0
M  END
>  <Energy>  (1205) 
825.08749732977742

>  <compound_id>  (1205) 
44146

>  <target_id>  (1205) 
1

>  <reference_id>  (1205) 
115

>  <inspiration_ids>  (1205) 
[115, 27]

>  <energy_score>  (1205) 
770.1967478561231

>  <distance_score>  (1205) 
13.971421560718431

>  <path>  (1205) 
/opt/xchem-fragalysis-2/maxwin/BulkDock/SCRATCH/511016/C44146-P115/C44146-P115.minimised.mol

>  <scratch_subdir>  (1205) 
/opt/xchem-fragalysis-2/maxwin/BulkDock/SCRATCH/511016/C44146-P115

>  <fragmenstein_runtime>  (1205) 
27.452127695083618

>  <fragmenstein_outcome>  (1205) 
too moved

>  <fragmenstein_mode>  (1205) 
expansion

>  <fragmenstein_error>  (1205) 


$$$$
C44146-P27
     RDKit          3D

 45 46  0  0  0  0  0  0  0  0999 V2000
    8.1769   -3.9134   15.3912 C   0  0  0  0  0  0  0  0  0  0  0  0
    7.3130   -5.7009   15.9346 C   0  0  0  0  0  0  0  0  0  0  0  0
    7.3592   -7.3847   15.5806 C   0  0  0  0  0  0  0  0  0  0  0  0
    9.1878   -7.8278   15.2594 C   0  0  0  0  0  0  0  0  0  0  0  0
   10.8741   -6.7505   15.5587 C   0  0  0  0  0  0  0  0  0  0  0  0
    6.3651   -8.1780   16.6699 C   0  0  0  0  0  0  0  0  0  0  0  0
    5.9022   -7.5412   17.5740 O   0  0  0  0  0  0  0  0  0  0  0  0
    6.2456   -9.5839   16.3482 N   0  0  0  0  0  0  0  0  0  0  0  0
    5.6064  -10.6845   17.0722 C   0  0  0  0  0  0  0  0  0  0  0  0
    5.0788  -10.5075   18.4712 C   0  0  0  0  0  0  0  0  0  0  0  0
    4.0644  -11.9979   18.6456 C   0  0  0  0  0  0  0  0  0  0  0  0
    2.6895  -11.8296   19.1969 N   0  0  0  0  0  0  0  0  0  0  0  0
    1.3668  -12.0259   18.7453 C   0  0  0  0  0  0  0  0  0  0  0  0
    0.7301  -11.1433   18.1774 O   0  0  0  0  0  0  0  0  0  0  0  0
    0.6843  -13.3212   19.0743 C   0  0  0  0  0  0  0  0  0  0  0  0
    1.1937  -14.5389   19.2195 N   0  0  0  0  0  0  0  0  0  0  0  0
    0.1614  -15.3644   19.6458 C   0  0  0  0  0  0  0  0  0  0  0  0
   -1.0088  -14.6613   19.7628 C   0  0  0  0  0  0  0  0  0  0  0  0
   -0.6778  -13.3910   19.3681 N   0  0  0  0  0  0  0  0  0  0  0  0
    3.8006  -12.3384   17.8287 C   0  0  0  0  0  0  0  0  0  0  0  0
    4.3291  -11.2678   16.5233 C   0  0  0  0  0  0  0  0  0  0  0  0
    7.9459   -3.4001   14.4150 H   0  0  0  0  0  0  0  0  0  0  0  0
    7.6187   -3.0596   15.7945 H   0  0  0  0  0  0  0  0  0  0  0  0
    9.2693   -3.9462   15.2112 H   0  0  0  0  0  0  0  0  0  0  0  0
    7.9861   -5.9831   15.1457 H   0  0  0  0  0  0  0  0  0  0  0  0
    6.2086   -5.6250   15.8164 H   0  0  0  0  0  0  0  0  0  0  0  0
    6.8397   -7.7443   14.6763 H   0  0  0  0  0  0  0  0  0  0  0  0
    8.8732   -7.9572   14.2638 H   0  0  0  0  0  0  0  0  0  0  0  0
    9.3517   -8.8942   15.5264 H   0  0  0  0  0  0  0  0  0  0  0  0
   10.7497   -5.9035   14.8828 H   0  0  0  0  0  0  0  0  0  0  0  0
   11.8972   -7.1824   15.7647 H   0  0  0  0  0  0  0  0  0  0  0  0
   11.0923   -6.1114   16.4282 H   0  0  0  0  0  0  0  0  0  0  0  0
    6.7040   -9.7603   15.4609 H   0  0  0  0  0  0  0  0  0  0  0  0
    6.3658  -11.4768   17.0858 H   0  0  0  0  0  0  0  0  0  0  0  0
    5.8747  -10.5105   19.2247 H   0  0  0  0  0  0  0  0  0  0  0  0
    4.4231   -9.6386   18.6035 H   0  0  0  0  0  0  0  0  0  0  0  0
    4.8070  -12.8672   19.1739 H   0  0  0  0  0  0  0  0  0  0  0  0
    4.2596  -11.7006   19.7573 H   0  0  0  0  0  0  0  0  0  0  0  0
    0.3323  -16.4149   19.8430 H   0  0  0  0  0  0  0  0  0  0  0  0
   -2.0085  -14.9376   20.0627 H   0  0  0  0  0  0  0  0  0  0  0  0
   -1.2922  -12.5908   19.3229 H   0  0  0  0  0  0  0  0  0  0  0  0
    2.8822  -12.5812   17.1522 H   0  0  0  0  0  0  0  0  0  0  0  0
    4.0380  -13.5125   17.6366 H   0  0  0  0  0  0  0  0  0  0  0  0
    3.5435  -10.5257   16.3337 H   0  0  0  0  0  0  0  0  0  0  0  0
    4.5004  -11.8728   15.6267 H   0  0  0  0  0  0  0  0  0  0  0  0
  1  2  1  0
  2  3  1  0
  3  4  1  0
  4  5  1  0
  3  6  1  0
  6  7  2  0
  6  8  1  0
  8  9  1  0
  9 10  1  0
 10 11  1  0
 11 12  1  0
 12 13  1  0
 13 14  2  0
 13 15  1  0
 15 16  2  0
 16 17  1  0
 17 18  2  0
 18 19  1  0
 12 20  1  0
 20 21  1  0
 21  9  1  0
 19 15  1  0
  1 22  1  0
  1 23  1  0
  1 24  1  0
  2 25  1  0
  2 26  1  0
  3 27  1  0
  4 28  1  0
  4 29  1  0
  5 30  1  0
  5 31  1  0
  5 32  1  0
  8 33  1  0
  9 34  1  0
 10 35  1  0
 10 36  1  0
 11 37  1  0
 11 38  1  0
 17 39  1  0
 18 40  1  0
 19 41  1  0
 20 42  1  0
 20 43  1  0
 21 44  1  0
 21 45  1  0
M  END
>  <Energy>  (1206) 
874.71141020819073

>  <compound_id>  (1206) 
44146

>  <target_id>  (1206) 
1

>  <reference_id>  (1206) 
27

>  <inspiration_ids>  (1206) 
[115, 27]

>  <energy_score>  (1206) 
819.8206607345381

>  <distance_score>  (1206) 
13.777227297935948

>  <path>  (1206) 
/opt/xchem-fragalysis-2/maxwin/BulkDock/SCRATCH/511016/C44146-P27/C44146-P27.minimised.mol

>  <scratch_subdir>  (1206) 
/opt/xchem-fragalysis-2/maxwin/BulkDock/SCRATCH/511016/C44146-P27

>  <fragmenstein_runtime>  (1206) 
18.533852338790894

>  <fragmenstein_outcome>  (1206) 
too moved

>  <fragmenstein_mode>  (1206) 
expansion

>  <fragmenstein_error>  (1206) 


$$$$
C44129-P115
     RDKit          3D

 57 58  0  0  0  0  0  0  0  0999 V2000
   12.8406   -5.3591   24.2448 C   0  0  0  0  0  0  0  0  0  0  0  0
   12.4458   -6.7635   24.7135 C   0  0  0  0  0  0  0  0  0  0  0  0
   12.3566   -7.8951   23.6693 C   0  0  0  0  0  0  0  0  0  0  0  0
   13.5888   -7.9667   22.7153 C   0  0  0  0  0  0  0  0  0  0  0  0
   13.7485   -6.8591   21.6712 C   0  0  0  0  0  0  0  0  0  0  0  0
   11.9821   -9.3238   24.2761 C   0  0  0  0  0  0  0  0  0  0  0  0
   12.7917  -10.2025   24.1841 O   0  0  0  0  0  0  0  0  0  0  0  0
   10.6136   -9.3423   24.7822 N   0  0  0  0  0  0  0  0  0  0  0  0
    9.7671  -10.4636   25.2450 C   0  0  0  0  0  0  0  0  0  0  0  0
    8.5348  -10.5161   24.3453 C   0  0  0  0  0  0  0  0  0  0  0  0
    7.6179  -11.6964   24.6867 C   0  0  0  0  0  0  0  0  0  0  0  0
    7.0556  -11.7395   26.1329 C   0  0  0  0  0  0  0  0  0  0  0  0
    5.9904  -12.8654   26.3600 N   0  0  0  0  0  0  0  0  0  0  0  0
    5.1199  -13.1710   27.5457 C   0  0  0  0  0  0  0  0  0  0  0  0
    5.1017  -12.6685   28.6199 O   0  0  0  0  0  0  0  0  0  0  0  0
    3.7436  -14.5515   27.2024 C   0  0  0  0  0  0  0  0  0  0  0  0
    2.3851  -15.7934   27.9897 C   0  0  0  0  0  0  0  0  0  0  0  0
    2.8784  -17.0786   27.4483 C   0  0  0  0  0  0  0  0  0  0  0  0
    0.9135  -16.1133   28.9925 N   0  0  0  0  0  0  0  0  0  0  0  0
    0.7774  -16.5364   30.3447 C   0  0  0  0  0  0  0  0  0  0  0  0
   -0.2436  -15.6650   30.9075 C   0  0  0  0  0  0  0  0  0  0  0  0
   -0.9763  -14.9452   30.0534 N   0  0  0  0  0  0  0  0  0  0  0  0
   -0.5072  -15.3527   28.9192 C   0  0  0  0  0  0  0  0  0  0  0  0
    8.3020  -11.6496   27.0595 C   0  0  0  0  0  0  0  0  0  0  0  0
    9.2821  -10.4523   26.7064 C   0  0  0  0  0  0  0  0  0  0  0  0
   12.3241   -5.0526   23.3362 H   0  0  0  0  0  0  0  0  0  0  0  0
   13.9216   -5.2917   24.0957 H   0  0  0  0  0  0  0  0  0  0  0  0
   12.5911   -4.6330   25.0265 H   0  0  0  0  0  0  0  0  0  0  0  0
   11.4763   -6.6806   25.2194 H   0  0  0  0  0  0  0  0  0  0  0  0
   13.1495   -7.0703   25.4982 H   0  0  0  0  0  0  0  0  0  0  0  0
   11.5070   -7.7227   23.0163 H   0  0  0  0  0  0  0  0  0  0  0  0
   13.5333   -8.9113   22.1581 H   0  0  0  0  0  0  0  0  0  0  0  0
   14.5049   -8.0284   23.3158 H   0  0  0  0  0  0  0  0  0  0  0  0
   14.1125   -5.9246   22.0959 H   0  0  0  0  0  0  0  0  0  0  0  0
   12.8162   -6.6644   21.1428 H   0  0  0  0  0  0  0  0  0  0  0  0
   14.5088   -7.1649   20.9452 H   0  0  0  0  0  0  0  0  0  0  0  0
   10.2501   -8.3981   24.7874 H   0  0  0  0  0  0  0  0  0  0  0  0
   10.3610  -11.3730   25.0888 H   0  0  0  0  0  0  0  0  0  0  0  0
    8.8420  -10.5938   23.2949 H   0  0  0  0  0  0  0  0  0  0  0  0
    7.9655   -9.5808   24.4298 H   0  0  0  0  0  0  0  0  0  0  0  0
    8.1734  -12.6206   24.5025 H   0  0  0  0  0  0  0  0  0  0  0  0
    6.7990  -11.6430   23.9807 H   0  0  0  0  0  0  0  0  0  0  0  0
    6.4898  -10.8185   26.3108 H   0  0  0  0  0  0  0  0  0  0  0  0
    5.6928  -13.4121   25.5928 H   0  0  0  0  0  0  0  0  0  0  0  0
    2.9170  -13.9555   26.8528 H   0  0  0  0  0  0  0  0  0  0  0  0
    4.1604  -15.0273   26.3077 H   0  0  0  0  0  0  0  0  0  0  0  0
    1.5747  -15.5194   27.4012 H   0  0  0  0  0  0  0  0  0  0  0  0
    1.9950  -17.6601   27.2363 H   0  0  0  0  0  0  0  0  0  0  0  0
    3.3474  -17.1131   26.4845 H   0  0  0  0  0  0  0  0  0  0  0  0
    3.6845  -17.3569   28.1102 H   0  0  0  0  0  0  0  0  0  0  0  0
    1.4878  -17.2292   30.7313 H   0  0  0  0  0  0  0  0  0  0  0  0
   -0.6255  -15.4558   31.8692 H   0  0  0  0  0  0  0  0  0  0  0  0
   -0.9732  -14.9816   28.0133 H   0  0  0  0  0  0  0  0  0  0  0  0
    7.9732  -11.5386   28.0992 H   0  0  0  0  0  0  0  0  0  0  0  0
    8.8621  -12.5905   27.0054 H   0  0  0  0  0  0  0  0  0  0  0  0
   10.1461  -10.4940   27.3800 H   0  0  0  0  0  0  0  0  0  0  0  0
    8.7661   -9.5069   26.9167 H   0  0  0  0  0  0  0  0  0  0  0  0
  1  2  1  0
  2  3  1  0
  3  4  1  0
  4  5  1  0
  3  6  1  0
  6  7  2  0
  6  8  1  0
  8  9  1  0
  9 10  1  0
 10 11  1  0
 11 12  1  0
 12 13  1  0
 13 14  1  0
 14 15  2  0
 14 16  1  0
 16 17  1  0
 17 18  1  0
 17 19  1  0
 19 20  1  0
 20 21  2  0
 21 22  1  0
 22 23  2  0
 12 24  1  0
 24 25  1  0
 25  9  1  0
 23 19  1  0
  1 26  1  0
  1 27  1  0
  1 28  1  0
  2 29  1  0
  2 30  1  0
  3 31  1  0
  4 32  1  0
  4 33  1  0
  5 34  1  0
  5 35  1  0
  5 36  1  0
  8 37  1  0
  9 38  1  0
 10 39  1  0
 10 40  1  0
 11 41  1  0
 11 42  1  0
 12 43  1  0
 13 44  1  0
 16 45  1  0
 16 46  1  0
 17 47  1  0
 18 48  1  0
 18 49  1  0
 18 50  1  0
 20 51  1  0
 21 52  1  0
 23 53  1  0
 24 54  1  0
 24 55  1  0
 25 56  1  0
 25 57  1  0
M  END
>  <Energy>  (1207) 
275.67907939122307

>  <compound_id>  (1207) 
44129

>  <target_id>  (1207) 
1

>  <reference_id>  (1207) 
115

>  <inspiration_ids>  (1207) 
[115, 27]

>  <energy_score>  (1207) 
259.1487754815022

>  <distance_score>  (1207) 
11.946776269470202

>  <path>  (1207) 
/opt/xchem-fragalysis-2/maxwin/BulkDock/SCRATCH/511016/C44129-P115/C44129-P115.minimised.mol

>  <scratch_subdir>  (1207) 
/opt/xchem-fragalysis-2/maxwin/BulkDock/SCRATCH/511016/C44129-P115

>  <fragmenstein_runtime>  (1207) 
44.88458514213562

>  <fragmenstein_outcome>  (1207) 
too moved

>  <fragmenstein_mode>  (1207) 
expansion

>  <fragmenstein_error>  (1207) 


$$$$
C44129-P27
     RDKit          3D

 57 58  0  0  0  0  0  0  0  0999 V2000
   10.9880   -9.3463   24.7134 C   0  0  0  0  0  0  0  0  0  0  0  0
   10.3811   -8.6234   23.5281 C   0  0  0  0  0  0  0  0  0  0  0  0
   10.0181   -9.4596   22.2667 C   0  0  0  0  0  0  0  0  0  0  0  0
   11.2882  -10.1910   21.7688 C   0  0  0  0  0  0  0  0  0  0  0  0
   12.5794   -9.3587   21.8072 C   0  0  0  0  0  0  0  0  0  0  0  0
    8.6961  -10.2991   22.5965 C   0  0  0  0  0  0  0  0  0  0  0  0
    8.8719  -11.1144   23.4652 O   0  0  0  0  0  0  0  0  0  0  0  0
    7.4958  -10.0105   21.7743 N   0  0  0  0  0  0  0  0  0  0  0  0
    6.1798  -10.7014   21.7015 C   0  0  0  0  0  0  0  0  0  0  0  0
    6.1863  -11.7470   20.5693 C   0  0  0  0  0  0  0  0  0  0  0  0
    4.8869  -12.6554   20.3815 C   0  0  0  0  0  0  0  0  0  0  0  0
    3.5922  -13.1010   21.6325 C   0  0  0  0  0  0  0  0  0  0  0  0
    3.5160  -14.7920   22.7875 N   0  0  0  0  0  0  0  0  0  0  0  0
    2.4656  -15.4555   23.4596 C   0  0  0  0  0  0  0  0  0  0  0  0
    1.4357  -14.9672   23.4780 O   0  0  0  0  0  0  0  0  0  0  0  0
    2.3504  -17.5239   24.3770 C   0  0  0  0  0  0  0  0  0  0  0  0
    0.4906  -18.6462   24.5543 C   0  0  0  0  0  0  0  0  0  0  0  0
   -0.4483  -18.3862   26.2704 C   0  0  0  0  0  0  0  0  0  0  0  0
   -1.0841  -19.3582   23.4895 N   0  0  0  0  0  0  0  0  0  0  0  0
   -2.6438  -19.2207   24.2543 C   0  0  0  0  0  0  0  0  0  0  0  0
   -3.5926  -20.0064   23.6661 C   0  0  0  0  0  0  0  0  0  0  0  0
   -3.0201  -21.0748   23.1129 N   0  0  0  0  0  0  0  0  0  0  0  0
   -1.7527  -20.9535   23.4195 C   0  0  0  0  0  0  0  0  0  0  0  0
    3.4770  -11.5563   22.1898 C   0  0  0  0  0  0  0  0  0  0  0  0
    4.6627  -10.2907   21.8621 C   0  0  0  0  0  0  0  0  0  0  0  0
   10.2415   -9.9646   25.2213 H   0  0  0  0  0  0  0  0  0  0  0  0
   11.3475   -8.6185   25.4492 H   0  0  0  0  0  0  0  0  0  0  0  0
   11.8258   -9.9953   24.4548 H   0  0  0  0  0  0  0  0  0  0  0  0
   11.1139   -7.8633   23.2615 H   0  0  0  0  0  0  0  0  0  0  0  0
    9.4826   -8.1390   23.9236 H   0  0  0  0  0  0  0  0  0  0  0  0
    9.7964   -8.8416   21.3998 H   0  0  0  0  0  0  0  0  0  0  0  0
   11.1184  -10.5235   20.7375 H   0  0  0  0  0  0  0  0  0  0  0  0
   11.4650  -11.0926   22.3645 H   0  0  0  0  0  0  0  0  0  0  0  0
   12.4206   -8.3242   21.4939 H   0  0  0  0  0  0  0  0  0  0  0  0
   13.3453   -9.8265   21.1795 H   0  0  0  0  0  0  0  0  0  0  0  0
   13.0093   -9.3246   22.8117 H   0  0  0  0  0  0  0  0  0  0  0  0
    7.7295   -9.3109   21.0787 H   0  0  0  0  0  0  0  0  0  0  0  0
    6.3582  -11.0859   22.7082 H   0  0  0  0  0  0  0  0  0  0  0  0
    6.3426  -11.2191   19.6178 H   0  0  0  0  0  0  0  0  0  0  0  0
    7.0635  -12.3953   20.6647 H   0  0  0  0  0  0  0  0  0  0  0  0
    5.2172  -13.4736   19.7446 H   0  0  0  0  0  0  0  0  0  0  0  0
    4.2657  -12.0578   19.6905 H   0  0  0  0  0  0  0  0  0  0  0  0
    2.9563  -13.3787   20.8026 H   0  0  0  0  0  0  0  0  0  0  0  0
    4.3662  -15.3402   22.9624 H   0  0  0  0  0  0  0  0  0  0  0  0
    3.0877  -18.1502   23.8661 H   0  0  0  0  0  0  0  0  0  0  0  0
    2.8186  -17.7322   25.3970 H   0  0  0  0  0  0  0  0  0  0  0  0
    0.9283  -19.5507   24.5087 H   0  0  0  0  0  0  0  0  0  0  0  0
   -0.9926  -19.2322   26.7100 H   0  0  0  0  0  0  0  0  0  0  0  0
   -1.3700  -17.8081   26.2780 H   0  0  0  0  0  0  0  0  0  0  0  0
    0.1837  -17.9306   27.0401 H   0  0  0  0  0  0  0  0  0  0  0  0
   -2.7006  -18.4825   25.0279 H   0  0  0  0  0  0  0  0  0  0  0  0
   -4.6658  -19.9332   23.7720 H   0  0  0  0  0  0  0  0  0  0  0  0
   -1.0003  -21.7396   23.4464 H   0  0  0  0  0  0  0  0  0  0  0  0
    3.2999  -11.7093   23.2358 H   0  0  0  0  0  0  0  0  0  0  0  0
    2.5479  -11.1110   21.8180 H   0  0  0  0  0  0  0  0  0  0  0  0
    4.5552   -9.5352   22.6471 H   0  0  0  0  0  0  0  0  0  0  0  0
    4.3327   -9.8102   20.9317 H   0  0  0  0  0  0  0  0  0  0  0  0
  1  2  1  0
  2  3  1  0
  3  4  1  0
  4  5  1  0
  3  6  1  0
  6  7  2  0
  6  8  1  0
  8  9  1  0
  9 10  1  0
 10 11  1  0
 11 12  1  0
 12 13  1  0
 13 14  1  0
 14 15  2  0
 14 16  1  0
 16 17  1  0
 17 18  1  0
 17 19  1  0
 19 20  1  0
 20 21  2  0
 21 22  1  0
 22 23  2  0
 12 24  1  0
 24 25  1  0
 25  9  1  0
 23 19  1  0
  1 26  1  0
  1 27  1  0
  1 28  1  0
  2 29  1  0
  2 30  1  0
  3 31  1  0
  4 32  1  0
  4 33  1  0
  5 34  1  0
  5 35  1  0
  5 36  1  0
  8 37  1  0
  9 38  1  0
 10 39  1  0
 10 40  1  0
 11 41  1  0
 11 42  1  0
 12 43  1  0
 13 44  1  0
 16 45  1  0
 16 46  1  0
 17 47  1  0
 18 48  1  0
 18 49  1  0
 18 50  1  0
 20 51  1  0
 21 52  1  0
 23 53  1  0
 24 54  1  0
 24 55  1  0
 25 56  1  0
 25 57  1  0
M  END
>  <Energy>  (1208) 
780.61676730779641

>  <compound_id>  (1208) 
44129

>  <target_id>  (1208) 
1

>  <reference_id>  (1208) 
27

>  <inspiration_ids>  (1208) 
[115, 27]

>  <energy_score>  (1208) 
764.0864633980588

>  <distance_score>  (1208) 
12.109004987200917

>  <path>  (1208) 
/opt/xchem-fragalysis-2/maxwin/BulkDock/SCRATCH/511016/C44129-P27/C44129-P27.minimised.mol

>  <scratch_subdir>  (1208) 
/opt/xchem-fragalysis-2/maxwin/BulkDock/SCRATCH/511016/C44129-P27

>  <fragmenstein_runtime>  (1208) 
34.81835460662842

>  <fragmenstein_outcome>  (1208) 
too moved

>  <fragmenstein_mode>  (1208) 
expansion

>  <fragmenstein_error>  (1208) 


$$$$
C73152-P115
     RDKit          3D

 54 55  0  0  0  0  0  0  0  0999 V2000
    9.8751  -11.4685   17.5098 C   0  0  0  0  0  0  0  0  0  0  0  0
    8.6529  -10.5651   17.5132 C   0  0  0  0  0  0  0  0  0  0  0  0
    8.1220  -10.0113   18.9705 C   0  0  0  0  0  0  0  0  0  0  0  0
    9.6652   -8.8001   19.7040 C   0  0  0  0  0  0  0  0  0  0  0  0
   11.0202   -8.4350   20.9864 C   0  0  0  0  0  0  0  0  0  0  0  0
    6.6370  -11.3326   19.2755 C   0  0  0  0  0  0  0  0  0  0  0  0
    6.3665  -11.8922   18.2353 O   0  0  0  0  0  0  0  0  0  0  0  0
    5.8009  -11.5045   20.7548 N   0  0  0  0  0  0  0  0  0  0  0  0
    4.3199  -12.3698   21.1599 C   0  0  0  0  0  0  0  0  0  0  0  0
    3.4585  -11.8548   22.6134 C   0  0  0  0  0  0  0  0  0  0  0  0
    2.1080  -12.3658   23.7651 C   0  0  0  0  0  0  0  0  0  0  0  0
    1.3635  -13.9158   23.7644 N   0  0  0  0  0  0  0  0  0  0  0  0
    0.4150  -14.2037   25.3387 C   0  0  0  0  0  0  0  0  0  0  0  0
    0.7762  -14.6890   26.4124 O   0  0  0  0  0  0  0  0  0  0  0  0
   -1.4247  -13.8953   25.3686 C   0  0  0  0  0  0  0  0  0  0  0  0
   -2.0651  -13.9085   23.9445 C   0  0  0  0  0  0  0  0  0  0  0  0
   -1.9519  -12.6865   26.2003 C   0  0  0  0  0  0  0  0  0  0  0  0
   -2.0854  -15.2173   26.1119 C   0  0  0  0  0  0  0  0  0  0  0  0
   -2.3927  -15.4288   27.4513 C   0  0  0  0  0  0  0  0  0  0  0  0
   -3.0738  -16.6195   27.5181 N   0  0  0  0  0  0  0  0  0  0  0  0
   -3.1646  -17.1075   26.2495 C   0  0  0  0  0  0  0  0  0  0  0  0
   -2.5953  -16.2952   25.3845 N   0  0  0  0  0  0  0  0  0  0  0  0
    3.0515  -14.3695   23.2788 C   0  0  0  0  0  0  0  0  0  0  0  0
    3.5577  -13.6398   21.4599 C   0  0  0  0  0  0  0  0  0  0  0  0
   10.1544  -11.7061   16.4773 H   0  0  0  0  0  0  0  0  0  0  0  0
   10.7570  -11.0467   17.9918 H   0  0  0  0  0  0  0  0  0  0  0  0
    9.6375  -12.4173   18.0009 H   0  0  0  0  0  0  0  0  0  0  0  0
    8.8193   -9.7773   16.7893 H   0  0  0  0  0  0  0  0  0  0  0  0
    7.8633  -11.1164   17.0015 H   0  0  0  0  0  0  0  0  0  0  0  0
    7.4484   -9.2060   18.6206 H   0  0  0  0  0  0  0  0  0  0  0  0
    9.4523   -8.8566   20.6927 H   0  0  0  0  0  0  0  0  0  0  0  0
    9.3553   -7.8122   19.6742 H   0  0  0  0  0  0  0  0  0  0  0  0
   11.8394   -9.1699   21.1311 H   0  0  0  0  0  0  0  0  0  0  0  0
   10.6180   -8.3963   22.0163 H   0  0  0  0  0  0  0  0  0  0  0  0
   11.5413   -7.4855   20.8876 H   0  0  0  0  0  0  0  0  0  0  0  0
    6.1745  -10.8834   21.4091 H   0  0  0  0  0  0  0  0  0  0  0  0
    4.1106  -12.4757   20.0919 H   0  0  0  0  0  0  0  0  0  0  0  0
    3.9923  -12.4578   23.2379 H   0  0  0  0  0  0  0  0  0  0  0  0
    2.6198  -12.2306   22.2176 H   0  0  0  0  0  0  0  0  0  0  0  0
    1.7818  -11.7501   24.5390 H   0  0  0  0  0  0  0  0  0  0  0  0
    2.7527  -12.8119   24.4554 H   0  0  0  0  0  0  0  0  0  0  0  0
   -3.1432  -14.1031   23.9938 H   0  0  0  0  0  0  0  0  0  0  0  0
   -1.9561  -12.9562   23.4154 H   0  0  0  0  0  0  0  0  0  0  0  0
   -1.6082  -14.6865   23.3226 H   0  0  0  0  0  0  0  0  0  0  0  0
   -1.8659  -11.7343   25.6664 H   0  0  0  0  0  0  0  0  0  0  0  0
   -1.4005  -12.5916   27.1413 H   0  0  0  0  0  0  0  0  0  0  0  0
   -3.0158  -12.8001   26.4409 H   0  0  0  0  0  0  0  0  0  0  0  0
   -2.2138  -14.8344   28.3346 H   0  0  0  0  0  0  0  0  0  0  0  0
   -3.4640  -17.0463   28.3468 H   0  0  0  0  0  0  0  0  0  0  0  0
   -3.6609  -18.0392   26.0140 H   0  0  0  0  0  0  0  0  0  0  0  0
    3.2443  -15.4124   23.2407 H   0  0  0  0  0  0  0  0  0  0  0  0
    3.7062  -14.1805   24.1360 H   0  0  0  0  0  0  0  0  0  0  0  0
    4.6367  -13.7805   21.1110 H   0  0  0  0  0  0  0  0  0  0  0  0
    2.8434  -13.9970   20.7101 H   0  0  0  0  0  0  0  0  0  0  0  0
  1  2  1  0
  2  3  1  0
  3  4  1  0
  4  5  1  0
  3  6  1  0
  6  7  2  0
  6  8  1  0
  8  9  1  0
  9 10  1  0
 10 11  1  0
 11 12  1  0
 12 13  1  0
 13 14  2  0
 13 15  1  0
 15 16  1  0
 15 17  1  0
 15 18  1  0
 18 19  2  0
 19 20  1  0
 20 21  1  0
 21 22  2  0
 12 23  1  0
 23 24  1  0
 24  9  1  0
 22 18  1  0
  1 25  1  0
  1 26  1  0
  1 27  1  0
  2 28  1  0
  2 29  1  0
  3 30  1  0
  4 31  1  0
  4 32  1  0
  5 33  1  0
  5 34  1  0
  5 35  1  0
  8 36  1  0
  9 37  1  0
 10 38  1  0
 10 39  1  0
 11 40  1  0
 11 41  1  0
 16 42  1  0
 16 43  1  0
 16 44  1  0
 17 45  1  0
 17 46  1  0
 17 47  1  0
 19 48  1  0
 20 49  1  0
 21 50  1  0
 23 51  1  0
 23 52  1  0
 24 53  1  0
 24 54  1  0
M  END
>  <Energy>  (1209) 
935.24683548624046

>  <compound_id>  (1209) 
73152

>  <target_id>  (1209) 
1

>  <reference_id>  (1209) 
115

>  <inspiration_ids>  (1209) 
[115, 27]

>  <energy_score>  (1209) 
864.5488732484941

>  <distance_score>  (1209) 
13.410664155504966

>  <path>  (1209) 
/opt/xchem-fragalysis-2/maxwin/BulkDock/SCRATCH/511016/C73152-P115/C73152-P115.minimised.mol

>  <scratch_subdir>  (1209) 
/opt/xchem-fragalysis-2/maxwin/BulkDock/SCRATCH/511016/C73152-P115

>  <fragmenstein_runtime>  (1209) 
39.23569440841675

>  <fragmenstein_outcome>  (1209) 
too moved

>  <fragmenstein_mode>  (1209) 
expansion

>  <fragmenstein_error>  (1209) 


$$$$
C73152-P27
     RDKit          3D

 54 55  0  0  0  0  0  0  0  0999 V2000
    5.7659   -8.0260   17.0735 C   0  0  0  0  0  0  0  0  0  0  0  0
    6.0832   -9.5126   16.8544 C   0  0  0  0  0  0  0  0  0  0  0  0
    5.2379  -10.1869   15.7328 C   0  0  0  0  0  0  0  0  0  0  0  0
    5.5105   -9.4895   14.3671 C   0  0  0  0  0  0  0  0  0  0  0  0
    6.9689   -9.2130   14.0023 C   0  0  0  0  0  0  0  0  0  0  0  0
    5.4998  -11.7527   15.6627 C   0  0  0  0  0  0  0  0  0  0  0  0
    6.6300  -12.0887   15.4301 O   0  0  0  0  0  0  0  0  0  0  0  0
    4.2976  -12.5540   15.9070 N   0  0  0  0  0  0  0  0  0  0  0  0
    4.1185  -14.0258   16.0414 C   0  0  0  0  0  0  0  0  0  0  0  0
    2.9297  -14.7011   15.3343 C   0  0  0  0  0  0  0  0  0  0  0  0
    1.6597  -15.1678   16.2076 C   0  0  0  0  0  0  0  0  0  0  0  0
    1.7555  -15.7424   17.6487 N   0  0  0  0  0  0  0  0  0  0  0  0
    0.4199  -16.1087   18.1472 C   0  0  0  0  0  0  0  0  0  0  0  0
   -0.3903  -15.4564   18.7678 O   0  0  0  0  0  0  0  0  0  0  0  0
   -0.0071  -17.6517   17.9420 C   0  0  0  0  0  0  0  0  0  0  0  0
   -0.9421  -17.7271   16.7221 C   0  0  0  0  0  0  0  0  0  0  0  0
    1.2226  -18.5425   17.6912 C   0  0  0  0  0  0  0  0  0  0  0  0
   -0.8195  -18.2271   19.2197 C   0  0  0  0  0  0  0  0  0  0  0  0
   -1.8878  -17.6933   19.9324 C   0  0  0  0  0  0  0  0  0  0  0  0
   -2.2324  -18.6112   20.8933 N   0  0  0  0  0  0  0  0  0  0  0  0
   -1.4135  -19.6882   20.7350 C   0  0  0  0  0  0  0  0  0  0  0  0
   -0.5706  -19.5027   19.7395 N   0  0  0  0  0  0  0  0  0  0  0  0
    2.5476  -14.5199   17.8475 C   0  0  0  0  0  0  0  0  0  0  0  0
    4.0297  -14.4555   17.4814 C   0  0  0  0  0  0  0  0  0  0  0  0
    4.6872   -7.8834   17.1966 H   0  0  0  0  0  0  0  0  0  0  0  0
    6.0962   -7.4047   16.2378 H   0  0  0  0  0  0  0  0  0  0  0  0
    6.2454   -7.6647   17.9870 H   0  0  0  0  0  0  0  0  0  0  0  0
    5.9035  -10.0503   17.7879 H   0  0  0  0  0  0  0  0  0  0  0  0
    7.1489   -9.6628   16.6606 H   0  0  0  0  0  0  0  0  0  0  0  0
    4.1776  -10.0379   15.9711 H   0  0  0  0  0  0  0  0  0  0  0  0
    5.0694  -10.1037   13.5720 H   0  0  0  0  0  0  0  0  0  0  0  0
    4.9708   -8.5343   14.3482 H   0  0  0  0  0  0  0  0  0  0  0  0
    7.5540  -10.1365   13.9859 H   0  0  0  0  0  0  0  0  0  0  0  0
    7.0165   -8.7730   13.0006 H   0  0  0  0  0  0  0  0  0  0  0  0
    7.4475   -8.5150   14.6906 H   0  0  0  0  0  0  0  0  0  0  0  0
    3.4987  -11.9366   15.9873 H   0  0  0  0  0  0  0  0  0  0  0  0
    5.0463  -14.4314   15.6184 H   0  0  0  0  0  0  0  0  0  0  0  0
    3.3188  -15.6286   14.8899 H   0  0  0  0  0  0  0  0  0  0  0  0
    2.5753  -14.0913   14.4950 H   0  0  0  0  0  0  0  0  0  0  0  0
    1.2067  -15.9813   15.6262 H   0  0  0  0  0  0  0  0  0  0  0  0
    0.8795  -14.3859   16.1777 H   0  0  0  0  0  0  0  0  0  0  0  0
   -1.8004  -17.0554   16.8395 H   0  0  0  0  0  0  0  0  0  0  0  0
   -0.4305  -17.4418   15.7986 H   0  0  0  0  0  0  0  0  0  0  0  0
   -1.3339  -18.7417   16.5847 H   0  0  0  0  0  0  0  0  0  0  0  0
    1.7768  -18.2307   16.7993 H   0  0  0  0  0  0  0  0  0  0  0  0
    1.9135  -18.5108   18.5401 H   0  0  0  0  0  0  0  0  0  0  0  0
    0.9342  -19.5892   17.5395 H   0  0  0  0  0  0  0  0  0  0  0  0
   -2.4044  -16.7480   19.8413 H   0  0  0  0  0  0  0  0  0  0  0  0
   -2.9611  -18.5094   21.5855 H   0  0  0  0  0  0  0  0  0  0  0  0
   -1.4729  -20.5689   21.3596 H   0  0  0  0  0  0  0  0  0  0  0  0
    2.5383  -14.5650   18.9323 H   0  0  0  0  0  0  0  0  0  0  0  0
    1.9995  -13.5806   17.6553 H   0  0  0  0  0  0  0  0  0  0  0  0
    4.4836  -15.4444   17.6175 H   0  0  0  0  0  0  0  0  0  0  0  0
    4.5554  -13.7471   18.1301 H   0  0  0  0  0  0  0  0  0  0  0  0
  1  2  1  0
  2  3  1  0
  3  4  1  0
  4  5  1  0
  3  6  1  0
  6  7  2  0
  6  8  1  0
  8  9  1  0
  9 10  1  0
 10 11  1  0
 11 12  1  0
 12 13  1  0
 13 14  2  0
 13 15  1  0
 15 16  1  0
 15 17  1  0
 15 18  1  0
 18 19  2  0
 19 20  1  0
 20 21  1  0
 21 22  2  0
 12 23  1  0
 23 24  1  0
 24  9  1  0
 22 18  1  0
  1 25  1  0
  1 26  1  0
  1 27  1  0
  2 28  1  0
  2 29  1  0
  3 30  1  0
  4 31  1  0
  4 32  1  0
  5 33  1  0
  5 34  1  0
  5 35  1  0
  8 36  1  0
  9 37  1  0
 10 38  1  0
 10 39  1  0
 11 40  1  0
 11 41  1  0
 16 42  1  0
 16 43  1  0
 16 44  1  0
 17 45  1  0
 17 46  1  0
 17 47  1  0
 19 48  1  0
 20 49  1  0
 21 50  1  0
 23 51  1  0
 23 52  1  0
 24 53  1  0
 24 54  1  0
M  END
>  <Energy>  (1210) 
114.6730622344074

>  <compound_id>  (1210) 
73152

>  <target_id>  (1210) 
1

>  <reference_id>  (1210) 
27

>  <inspiration_ids>  (1210) 
[115, 27]

>  <energy_score>  (1210) 
43.97509999667528

>  <distance_score>  (1210) 
14.662994942811807

>  <path>  (1210) 
/opt/xchem-fragalysis-2/maxwin/BulkDock/SCRATCH/511016/C73152-P27/C73152-P27.minimised.mol

>  <scratch_subdir>  (1210) 
/opt/xchem-fragalysis-2/maxwin/BulkDock/SCRATCH/511016/C73152-P27

>  <fragmenstein_runtime>  (1210) 
53.949707984924316

>  <fragmenstein_outcome>  (1210) 
too moved

>  <fragmenstein_mode>  (1210) 
expansion

>  <fragmenstein_error>  (1210) 


$$$$
C44113-P115
     RDKit          3D

 51 52  0  0  0  0  0  0  0  0999 V2000
   15.7029   -3.9918   20.6792 C   0  0  0  0  0  0  0  0  0  0  0  0
   16.3418   -5.3756   20.5589 C   0  0  0  0  0  0  0  0  0  0  0  0
   16.0199   -6.1293   19.2567 C   0  0  0  0  0  0  0  0  0  0  0  0
   16.4318   -5.3043   17.9948 C   0  0  0  0  0  0  0  0  0  0  0  0
   15.3785   -4.3197   17.4654 C   0  0  0  0  0  0  0  0  0  0  0  0
   16.6766   -7.5894   19.2477 C   0  0  0  0  0  0  0  0  0  0  0  0
   17.7720   -7.7039   18.7699 O   0  0  0  0  0  0  0  0  0  0  0  0
   15.8048   -8.5807   19.8834 N   0  0  0  0  0  0  0  0  0  0  0  0
   15.9604  -10.0592   20.0496 C   0  0  0  0  0  0  0  0  0  0  0  0
   16.1621  -10.9251   18.7811 C   0  0  0  0  0  0  0  0  0  0  0  0
   15.2995  -12.0750   19.4537 C   0  0  0  0  0  0  0  0  0  0  0  0
   14.5073  -12.9568   18.4535 C   0  0  0  0  0  0  0  0  0  0  0  0
   13.8200  -14.1482   19.0242 N   0  0  0  0  0  0  0  0  0  0  0  0
   13.6175  -15.5010   18.4722 C   0  0  0  0  0  0  0  0  0  0  0  0
   14.0256  -16.0007   17.4604 O   0  0  0  0  0  0  0  0  0  0  0  0
   12.6177  -16.3515   19.3335 C   0  0  0  0  0  0  0  0  0  0  0  0
   12.3968  -17.8441   18.8792 C   0  0  0  0  0  0  0  0  0  0  0  0
   11.2295  -18.5955   19.4021 N   0  0  0  0  0  0  0  0  0  0  0  0
   10.0088  -18.7172   18.7786 C   0  0  0  0  0  0  0  0  0  0  0  0
    9.2378  -19.5182   19.5851 C   0  0  0  0  0  0  0  0  0  0  0  0
    9.9922  -20.0079   20.6200 N   0  0  0  0  0  0  0  0  0  0  0  0
   11.1860  -19.4726   20.4656 C   0  0  0  0  0  0  0  0  0  0  0  0
   14.6537  -10.8955   20.2695 C   0  0  0  0  0  0  0  0  0  0  0  0
   14.6395   -4.0184   20.4234 H   0  0  0  0  0  0  0  0  0  0  0  0
   15.7915   -3.6348   21.7109 H   0  0  0  0  0  0  0  0  0  0  0  0
   16.2150   -3.2622   20.0469 H   0  0  0  0  0  0  0  0  0  0  0  0
   16.0025   -5.9861   21.4054 H   0  0  0  0  0  0  0  0  0  0  0  0
   17.4285   -5.2812   20.6753 H   0  0  0  0  0  0  0  0  0  0  0  0
   14.9400   -6.2469   19.2398 H   0  0  0  0  0  0  0  0  0  0  0  0
   17.3619   -4.7578   18.1955 H   0  0  0  0  0  0  0  0  0  0  0  0
   16.6763   -5.9912   17.1771 H   0  0  0  0  0  0  0  0  0  0  0  0
   14.3772   -4.7533   17.4278 H   0  0  0  0  0  0  0  0  0  0  0  0
   15.6486   -4.0061   16.4513 H   0  0  0  0  0  0  0  0  0  0  0  0
   15.3256   -3.4140   18.0720 H   0  0  0  0  0  0  0  0  0  0  0  0
   14.9859   -8.1156   20.2458 H   0  0  0  0  0  0  0  0  0  0  0  0
   16.7163  -10.2641   20.8192 H   0  0  0  0  0  0  0  0  0  0  0  0
   17.1997  -11.1981   18.5657 H   0  0  0  0  0  0  0  0  0  0  0  0
   15.7236  -10.5119   17.8717 H   0  0  0  0  0  0  0  0  0  0  0  0
   15.9291  -12.7144   20.0902 H   0  0  0  0  0  0  0  0  0  0  0  0
   13.7356  -12.3633   17.9521 H   0  0  0  0  0  0  0  0  0  0  0  0
   15.1850  -13.3373   17.6815 H   0  0  0  0  0  0  0  0  0  0  0  0
   13.2585  -14.0434   19.8597 H   0  0  0  0  0  0  0  0  0  0  0  0
   12.9847  -16.3466   20.3646 H   0  0  0  0  0  0  0  0  0  0  0  0
   11.6584  -15.8270   19.2669 H   0  0  0  0  0  0  0  0  0  0  0  0
   12.3023  -17.8855   17.7870 H   0  0  0  0  0  0  0  0  0  0  0  0
   13.2825  -18.4353   19.1417 H   0  0  0  0  0  0  0  0  0  0  0  0
    9.8158  -18.2315   17.8367 H   0  0  0  0  0  0  0  0  0  0  0  0
    8.2028  -19.7913   19.4433 H   0  0  0  0  0  0  0  0  0  0  0  0
   12.0448  -19.6623   21.0954 H   0  0  0  0  0  0  0  0  0  0  0  0
   13.7527  -10.4955   19.8042 H   0  0  0  0  0  0  0  0  0  0  0  0
   14.4254  -11.1304   21.3133 H   0  0  0  0  0  0  0  0  0  0  0  0
  1  2  1  0
  2  3  1  0
  3  4  1  0
  4  5  1  0
  3  6  1  0
  6  7  2  0
  6  8  1  0
  8  9  1  0
  9 10  1  0
 10 11  1  0
 11 12  1  0
 12 13  1  0
 13 14  1  0
 14 15  2  0
 14 16  1  0
 16 17  1  0
 17 18  1  0
 18 19  1  0
 19 20  2  0
 20 21  1  0
 21 22  2  0
 11 23  1  0
 23  9  1  0
 22 18  1  0
  1 24  1  0
  1 25  1  0
  1 26  1  0
  2 27  1  0
  2 28  1  0
  3 29  1  0
  4 30  1  0
  4 31  1  0
  5 32  1  0
  5 33  1  0
  5 34  1  0
  8 35  1  0
  9 36  1  0
 10 37  1  0
 10 38  1  0
 11 39  1  0
 12 40  1  0
 12 41  1  0
 13 42  1  0
 16 43  1  0
 16 44  1  0
 17 45  1  0
 17 46  1  0
 19 47  1  0
 20 48  1  0
 22 49  1  0
 23 50  1  0
 23 51  1  0
M  END
>  <Energy>  (1211) 
2.9835715427544347

>  <compound_id>  (1211) 
44113

>  <target_id>  (1211) 
1

>  <reference_id>  (1211) 
115

>  <inspiration_ids>  (1211) 
[115, 27]

>  <energy_score>  (1211) 
-0.6290798044678922

>  <distance_score>  (1211) 
14.365683364640635

>  <path>  (1211) 
/opt/xchem-fragalysis-2/maxwin/BulkDock/SCRATCH/511016/C44113-P115/C44113-P115.minimised.mol

>  <scratch_subdir>  (1211) 
/opt/xchem-fragalysis-2/maxwin/BulkDock/SCRATCH/511016/C44113-P115

>  <fragmenstein_runtime>  (1211) 
31.551352977752686

>  <fragmenstein_outcome>  (1211) 
too moved

>  <fragmenstein_mode>  (1211) 
expansion

>  <fragmenstein_error>  (1211) 


$$$$
C44113-P27
     RDKit          3D

 51 52  0  0  0  0  0  0  0  0999 V2000
   12.1577   -5.1201   24.0981 C   0  0  0  0  0  0  0  0  0  0  0  0
   11.8300   -6.5084   24.6678 C   0  0  0  0  0  0  0  0  0  0  0  0
   10.8281   -7.4214   23.8727 C   0  0  0  0  0  0  0  0  0  0  0  0
   11.5776   -8.2447   22.8055 C   0  0  0  0  0  0  0  0  0  0  0  0
   12.6045   -7.4863   21.9687 C   0  0  0  0  0  0  0  0  0  0  0  0
    9.8185   -8.1805   24.8855 C   0  0  0  0  0  0  0  0  0  0  0  0
    9.4199   -7.4945   25.7892 O   0  0  0  0  0  0  0  0  0  0  0  0
    9.4677   -9.5436   24.5027 N   0  0  0  0  0  0  0  0  0  0  0  0
    8.4243  -10.4909   25.0552 C   0  0  0  0  0  0  0  0  0  0  0  0
    7.0185   -9.9150   25.0586 C   0  0  0  0  0  0  0  0  0  0  0  0
    6.3728  -11.1458   23.9972 C   0  0  0  0  0  0  0  0  0  0  0  0
    4.8337  -11.0585   22.7744 C   0  0  0  0  0  0  0  0  0  0  0  0
    3.1402  -11.9938   23.1231 N   0  0  0  0  0  0  0  0  0  0  0  0
    2.8406  -13.3669   23.8592 C   0  0  0  0  0  0  0  0  0  0  0  0
    3.6220  -14.1907   24.3003 O   0  0  0  0  0  0  0  0  0  0  0  0
    0.9116  -13.9181   24.1439 C   0  0  0  0  0  0  0  0  0  0  0  0
   -0.9363  -14.5955   24.4958 C   0  0  0  0  0  0  0  0  0  0  0  0
   -2.4378  -14.7756   25.4972 N   0  0  0  0  0  0  0  0  0  0  0  0
   -3.0834  -15.8960   26.0624 C   0  0  0  0  0  0  0  0  0  0  0  0
   -4.2154  -15.4866   26.7222 C   0  0  0  0  0  0  0  0  0  0  0  0
   -4.3891  -14.1624   26.5469 N   0  0  0  0  0  0  0  0  0  0  0  0
   -3.3667  -13.7708   25.8183 C   0  0  0  0  0  0  0  0  0  0  0  0
    7.8845  -11.7590   24.3203 C   0  0  0  0  0  0  0  0  0  0  0  0
   12.3334   -5.1117   23.0240 H   0  0  0  0  0  0  0  0  0  0  0  0
   11.3615   -4.4134   24.3420 H   0  0  0  0  0  0  0  0  0  0  0  0
   13.0644   -4.7389   24.5814 H   0  0  0  0  0  0  0  0  0  0  0  0
   11.4680   -6.3422   25.6891 H   0  0  0  0  0  0  0  0  0  0  0  0
   12.7686   -7.0620   24.8031 H   0  0  0  0  0  0  0  0  0  0  0  0
   10.1457   -6.7624   23.3263 H   0  0  0  0  0  0  0  0  0  0  0  0
   12.0939   -9.0751   23.3036 H   0  0  0  0  0  0  0  0  0  0  0  0
   10.8558   -8.6983   22.1199 H   0  0  0  0  0  0  0  0  0  0  0  0
   13.3815   -7.0249   22.5827 H   0  0  0  0  0  0  0  0  0  0  0  0
   12.1327   -6.7224   21.3479 H   0  0  0  0  0  0  0  0  0  0  0  0
   13.1406   -8.1957   21.3378 H   0  0  0  0  0  0  0  0  0  0  0  0
   10.0595   -9.8335   23.7407 H   0  0  0  0  0  0  0  0  0  0  0  0
    8.7641  -10.7558   26.0669 H   0  0  0  0  0  0  0  0  0  0  0  0
    6.9882   -8.8497   24.8291 H   0  0  0  0  0  0  0  0  0  0  0  0
    6.6689   -9.9557   26.1035 H   0  0  0  0  0  0  0  0  0  0  0  0
    5.8822  -11.8428   24.6829 H   0  0  0  0  0  0  0  0  0  0  0  0
    4.6279  -10.0760   23.1358 H   0  0  0  0  0  0  0  0  0  0  0  0
    5.0929  -11.1339   21.7136 H   0  0  0  0  0  0  0  0  0  0  0  0
    2.2768  -11.5125   22.9641 H   0  0  0  0  0  0  0  0  0  0  0  0
    1.2483  -14.6557   23.4509 H   0  0  0  0  0  0  0  0  0  0  0  0
    1.0945  -13.7003   25.2751 H   0  0  0  0  0  0  0  0  0  0  0  0
   -1.1358  -13.6685   25.0232 H   0  0  0  0  0  0  0  0  0  0  0  0
   -1.3742  -14.9335   23.5728 H   0  0  0  0  0  0  0  0  0  0  0  0
   -2.7019  -16.9074   26.0026 H   0  0  0  0  0  0  0  0  0  0  0  0
   -4.9150  -16.0882   27.2873 H   0  0  0  0  0  0  0  0  0  0  0  0
   -3.2309  -12.7441   25.5119 H   0  0  0  0  0  0  0  0  0  0  0  0
    7.8209  -12.5674   25.0672 H   0  0  0  0  0  0  0  0  0  0  0  0
    8.5251  -12.2064   23.5723 H   0  0  0  0  0  0  0  0  0  0  0  0
  1  2  1  0
  2  3  1  0
  3  4  1  0
  4  5  1  0
  3  6  1  0
  6  7  2  0
  6  8  1  0
  8  9  1  0
  9 10  1  0
 10 11  1  0
 11 12  1  0
 12 13  1  0
 13 14  1  0
 14 15  2  0
 14 16  1  0
 16 17  1  0
 17 18  1  0
 18 19  1  0
 19 20  2  0
 20 21  1  0
 21 22  2  0
 11 23  1  0
 23  9  1  0
 22 18  1  0
  1 24  1  0
  1 25  1  0
  1 26  1  0
  2 27  1  0
  2 28  1  0
  3 29  1  0
  4 30  1  0
  4 31  1  0
  5 32  1  0
  5 33  1  0
  5 34  1  0
  8 35  1  0
  9 36  1  0
 10 37  1  0
 10 38  1  0
 11 39  1  0
 12 40  1  0
 12 41  1  0
 13 42  1  0
 16 43  1  0
 16 44  1  0
 17 45  1  0
 17 46  1  0
 19 47  1  0
 20 48  1  0
 22 49  1  0
 23 50  1  0
 23 51  1  0
M  END
>  <Energy>  (1212) 
487.87536110679622

>  <compound_id>  (1212) 
44113

>  <target_id>  (1212) 
1

>  <reference_id>  (1212) 
27

>  <inspiration_ids>  (1212) 
[115, 27]

>  <energy_score>  (1212) 
484.2627097595557

>  <distance_score>  (1212) 
11.76587567725328

>  <path>  (1212) 
/opt/xchem-fragalysis-2/maxwin/BulkDock/SCRATCH/511016/C44113-P27/C44113-P27.minimised.mol

>  <scratch_subdir>  (1212) 
/opt/xchem-fragalysis-2/maxwin/BulkDock/SCRATCH/511016/C44113-P27

>  <fragmenstein_runtime>  (1212) 
45.158204793930054

>  <fragmenstein_outcome>  (1212) 
too moved

>  <fragmenstein_mode>  (1212) 
expansion

>  <fragmenstein_error>  (1212) 


$$$$
C44119-P115
     RDKit          3D

 52 54  0  0  0  0  0  0  0  0999 V2000
   12.5055   -7.9001   23.0762 C   0  0  0  0  0  0  0  0  0  0  0  0
   12.0240   -9.0355   23.9747 C   0  0  0  0  0  0  0  0  0  0  0  0
   10.5000   -9.4307   24.0141 C   0  0  0  0  0  0  0  0  0  0  0  0
   10.0699  -10.1469   22.7119 C   0  0  0  0  0  0  0  0  0  0  0  0
    9.6251   -9.2527   21.5552 C   0  0  0  0  0  0  0  0  0  0  0  0
   10.2086  -10.2864   25.3635 C   0  0  0  0  0  0  0  0  0  0  0  0
   11.1535  -10.6671   25.9979 O   0  0  0  0  0  0  0  0  0  0  0  0
    8.7772  -10.3747   25.6431 N   0  0  0  0  0  0  0  0  0  0  0  0
    8.0539  -10.8657   26.8295 C   0  0  0  0  0  0  0  0  0  0  0  0
    6.8165  -10.0634   26.9987 C   0  0  0  0  0  0  0  0  0  0  0  0
    6.6600  -11.5672   26.9581 C   0  0  0  0  0  0  0  0  0  0  0  0
    5.6906  -12.0874   27.9818 C   0  0  0  0  0  0  0  0  0  0  0  0
    5.1801  -13.4157   26.9252 C   0  0  0  0  0  0  0  0  0  0  0  0
    3.5328  -14.3607   27.2218 N   0  0  0  0  0  0  0  0  0  0  0  0
    3.2288  -15.9937   27.8233 C   0  0  0  0  0  0  0  0  0  0  0  0
    4.0446  -16.8220   28.0549 O   0  0  0  0  0  0  0  0  0  0  0  0
    1.5130  -16.6268   28.3811 C   0  0  0  0  0  0  0  0  0  0  0  0
    1.2953  -17.2355   30.2055 C   0  0  0  0  0  0  0  0  0  0  0  0
    0.6776  -18.3916   31.0076 N   0  0  0  0  0  0  0  0  0  0  0  0
    0.0211  -19.5778   30.7226 C   0  0  0  0  0  0  0  0  0  0  0  0
   -0.4882  -20.0729   31.9002 C   0  0  0  0  0  0  0  0  0  0  0  0
   -0.1594  -19.2561   32.9336 N   0  0  0  0  0  0  0  0  0  0  0  0
    0.5456  -18.2858   32.3933 C   0  0  0  0  0  0  0  0  0  0  0  0
    6.3717  -12.6715   26.0275 C   0  0  0  0  0  0  0  0  0  0  0  0
   13.5999   -7.8514   23.1154 H   0  0  0  0  0  0  0  0  0  0  0  0
   12.1432   -6.9432   23.4519 H   0  0  0  0  0  0  0  0  0  0  0  0
   12.2356   -8.0479   22.0330 H   0  0  0  0  0  0  0  0  0  0  0  0
   12.6028   -9.9355   23.7278 H   0  0  0  0  0  0  0  0  0  0  0  0
   12.3326   -8.7632   24.9929 H   0  0  0  0  0  0  0  0  0  0  0  0
    9.9178   -8.5083   24.1340 H   0  0  0  0  0  0  0  0  0  0  0  0
    9.2369  -10.8250   22.9358 H   0  0  0  0  0  0  0  0  0  0  0  0
   10.8844  -10.7940   22.3639 H   0  0  0  0  0  0  0  0  0  0  0  0
    8.7317   -8.6909   21.8358 H   0  0  0  0  0  0  0  0  0  0  0  0
   10.4022   -8.5638   21.2365 H   0  0  0  0  0  0  0  0  0  0  0  0
    9.3623   -9.8722   20.6910 H   0  0  0  0  0  0  0  0  0  0  0  0
    8.2686   -9.8731   24.9256 H   0  0  0  0  0  0  0  0  0  0  0  0
    8.7164  -10.9950   27.6832 H   0  0  0  0  0  0  0  0  0  0  0  0
    6.7086   -9.5572   27.9572 H   0  0  0  0  0  0  0  0  0  0  0  0
    6.4854   -9.4338   26.1881 H   0  0  0  0  0  0  0  0  0  0  0  0
    5.0172  -11.2740   28.2679 H   0  0  0  0  0  0  0  0  0  0  0  0
    6.1436  -12.2423   28.9584 H   0  0  0  0  0  0  0  0  0  0  0  0
    4.9235  -13.7098   25.8802 H   0  0  0  0  0  0  0  0  0  0  0  0
    2.6519  -13.8972   27.0341 H   0  0  0  0  0  0  0  0  0  0  0  0
    1.1597  -17.4014   27.7101 H   0  0  0  0  0  0  0  0  0  0  0  0
    0.7674  -15.9206   28.6319 H   0  0  0  0  0  0  0  0  0  0  0  0
    2.2504  -17.1842   30.7313 H   0  0  0  0  0  0  0  0  0  0  0  0
    0.6510  -16.4537   30.6153 H   0  0  0  0  0  0  0  0  0  0  0  0
   -0.1333  -19.9533   29.7324 H   0  0  0  0  0  0  0  0  0  0  0  0
   -1.0845  -20.9635   32.0465 H   0  0  0  0  0  0  0  0  0  0  0  0
    0.9705  -17.4510   32.9353 H   0  0  0  0  0  0  0  0  0  0  0  0
    6.2198  -12.2154   25.0549 H   0  0  0  0  0  0  0  0  0  0  0  0
    7.3166  -13.2323   26.0134 H   0  0  0  0  0  0  0  0  0  0  0  0
  1  2  1  0
  2  3  1  0
  3  4  1  0
  4  5  1  0
  3  6  1  0
  6  7  2  0
  6  8  1  0
  8  9  1  0
  9 10  1  0
 10 11  1  0
 11 12  1  0
 12 13  1  0
 13 14  1  0
 14 15  1  0
 15 16  2  0
 15 17  1  0
 17 18  1  0
 18 19  1  0
 19 20  1  0
 20 21  2  0
 21 22  1  0
 22 23  2  0
 13 24  1  0
 11  9  1  0
 23 19  1  0
 24 11  1  0
  1 25  1  0
  1 26  1  0
  1 27  1  0
  2 28  1  0
  2 29  1  0
  3 30  1  0
  4 31  1  0
  4 32  1  0
  5 33  1  0
  5 34  1  0
  5 35  1  0
  8 36  1  0
  9 37  1  0
 10 38  1  0
 10 39  1  0
 12 40  1  0
 12 41  1  0
 13 42  1  0
 14 43  1  0
 17 44  1  0
 17 45  1  0
 18 46  1  0
 18 47  1  0
 20 48  1  0
 21 49  1  0
 23 50  1  0
 24 51  1  0
 24 52  1  0
M  END
>  <Energy>  (1213) 
356.24123783004961

>  <compound_id>  (1213) 
44119

>  <target_id>  (1213) 
1

>  <reference_id>  (1213) 
115

>  <inspiration_ids>  (1213) 
[115, 27]

>  <energy_score>  (1213) 
332.5847715774679

>  <distance_score>  (1213) 
12.535192741728439

>  <path>  (1213) 
/opt/xchem-fragalysis-2/maxwin/BulkDock/SCRATCH/511016/C44119-P115/C44119-P115.minimised.mol

>  <scratch_subdir>  (1213) 
/opt/xchem-fragalysis-2/maxwin/BulkDock/SCRATCH/511016/C44119-P115

>  <fragmenstein_runtime>  (1213) 
33.45058226585388

>  <fragmenstein_outcome>  (1213) 
too moved

>  <fragmenstein_mode>  (1213) 
expansion

>  <fragmenstein_error>  (1213) 


$$$$
C44119-P27
     RDKit          3D

 52 54  0  0  0  0  0  0  0  0999 V2000
   12.2574   -6.6200   24.7735 C   0  0  0  0  0  0  0  0  0  0  0  0
   12.0917   -8.1107   25.1106 C   0  0  0  0  0  0  0  0  0  0  0  0
   11.0975   -8.9036   24.2284 C   0  0  0  0  0  0  0  0  0  0  0  0
   11.7726   -9.4376   22.9244 C   0  0  0  0  0  0  0  0  0  0  0  0
   12.7571   -8.5429   22.1788 C   0  0  0  0  0  0  0  0  0  0  0  0
   10.2917  -10.0950   24.9744 C   0  0  0  0  0  0  0  0  0  0  0  0
   10.3786  -11.2175   24.5593 O   0  0  0  0  0  0  0  0  0  0  0  0
    9.4708   -9.5383   26.0435 N   0  0  0  0  0  0  0  0  0  0  0  0
    8.4313  -10.1486   26.8736 C   0  0  0  0  0  0  0  0  0  0  0  0
    7.2347  -10.0560   25.9338 C   0  0  0  0  0  0  0  0  0  0  0  0
    7.2709  -11.1800   26.8704 C   0  0  0  0  0  0  0  0  0  0  0  0
    7.2987  -12.6691   26.6745 C   0  0  0  0  0  0  0  0  0  0  0  0
    5.6492  -12.6317   26.8981 C   0  0  0  0  0  0  0  0  0  0  0  0
    4.5038  -13.9460   27.5997 N   0  0  0  0  0  0  0  0  0  0  0  0
    3.0022  -14.3202   27.2481 C   0  0  0  0  0  0  0  0  0  0  0  0
    2.2038  -13.7803   26.4897 O   0  0  0  0  0  0  0  0  0  0  0  0
    2.3284  -15.9788   28.0151 C   0  0  0  0  0  0  0  0  0  0  0  0
    1.1248  -16.5641   29.3709 C   0  0  0  0  0  0  0  0  0  0  0  0
    1.1858  -17.2750   30.7503 N   0  0  0  0  0  0  0  0  0  0  0  0
    0.5958  -18.5139   31.1054 C   0  0  0  0  0  0  0  0  0  0  0  0
    0.4687  -18.5738   32.4650 C   0  0  0  0  0  0  0  0  0  0  0  0
    0.9407  -17.4318   33.0084 N   0  0  0  0  0  0  0  0  0  0  0  0
    1.3435  -16.6917   31.9950 C   0  0  0  0  0  0  0  0  0  0  0  0
    6.0889  -11.3721   27.8206 C   0  0  0  0  0  0  0  0  0  0  0  0
   11.3621   -6.0655   25.0678 H   0  0  0  0  0  0  0  0  0  0  0  0
   12.4639   -6.4319   23.7210 H   0  0  0  0  0  0  0  0  0  0  0  0
   13.0909   -6.2083   25.3529 H   0  0  0  0  0  0  0  0  0  0  0  0
   13.0744   -8.5973   25.0741 H   0  0  0  0  0  0  0  0  0  0  0  0
   11.7871   -8.1732   26.1620 H   0  0  0  0  0  0  0  0  0  0  0  0
   10.3019   -8.2213   23.9108 H   0  0  0  0  0  0  0  0  0  0  0  0
   10.9860   -9.7546   22.2276 H   0  0  0  0  0  0  0  0  0  0  0  0
   12.3203  -10.3536   23.1847 H   0  0  0  0  0  0  0  0  0  0  0  0
   12.2632   -7.7042   21.6956 H   0  0  0  0  0  0  0  0  0  0  0  0
   13.5539   -8.1731   22.8285 H   0  0  0  0  0  0  0  0  0  0  0  0
   13.2618   -9.1360   21.4110 H   0  0  0  0  0  0  0  0  0  0  0  0
    9.5930   -8.5322   26.0654 H   0  0  0  0  0  0  0  0  0  0  0  0
    8.4232   -9.6102   27.8232 H   0  0  0  0  0  0  0  0  0  0  0  0
    6.6074   -9.1928   26.1217 H   0  0  0  0  0  0  0  0  0  0  0  0
    7.3761  -10.3197   24.8900 H   0  0  0  0  0  0  0  0  0  0  0  0
    7.6771  -12.9079   25.6801 H   0  0  0  0  0  0  0  0  0  0  0  0
    7.9603  -13.1287   27.4084 H   0  0  0  0  0  0  0  0  0  0  0  0
    5.4661  -12.6551   25.8224 H   0  0  0  0  0  0  0  0  0  0  0  0
    4.8299  -14.5456   28.3220 H   0  0  0  0  0  0  0  0  0  0  0  0
    1.9198  -16.6754   27.2856 H   0  0  0  0  0  0  0  0  0  0  0  0
    3.2805  -16.5548   28.0611 H   0  0  0  0  0  0  0  0  0  0  0  0
    0.7108  -17.2933   28.6975 H   0  0  0  0  0  0  0  0  0  0  0  0
    0.3149  -15.9066   29.6307 H   0  0  0  0  0  0  0  0  0  0  0  0
    0.2658  -19.2381   30.3781 H   0  0  0  0  0  0  0  0  0  0  0  0
    0.0510  -19.3695   33.0667 H   0  0  0  0  0  0  0  0  0  0  0  0
    1.7508  -15.7095   32.1582 H   0  0  0  0  0  0  0  0  0  0  0  0
    6.3833  -11.6094   28.8480 H   0  0  0  0  0  0  0  0  0  0  0  0
    5.4098  -10.5165   27.8663 H   0  0  0  0  0  0  0  0  0  0  0  0
  1  2  1  0
  2  3  1  0
  3  4  1  0
  4  5  1  0
  3  6  1  0
  6  7  2  0
  6  8  1  0
  8  9  1  0
  9 10  1  0
 10 11  1  0
 11 12  1  0
 12 13  1  0
 13 14  1  0
 14 15  1  0
 15 16  2  0
 15 17  1  0
 17 18  1  0
 18 19  1  0
 19 20  1  0
 20 21  2  0
 21 22  1  0
 22 23  2  0
 13 24  1  0
 11  9  1  0
 23 19  1  0
 24 11  1  0
  1 25  1  0
  1 26  1  0
  1 27  1  0
  2 28  1  0
  2 29  1  0
  3 30  1  0
  4 31  1  0
  4 32  1  0
  5 33  1  0
  5 34  1  0
  5 35  1  0
  8 36  1  0
  9 37  1  0
 10 38  1  0
 10 39  1  0
 12 40  1  0
 12 41  1  0
 13 42  1  0
 14 43  1  0
 17 44  1  0
 17 45  1  0
 18 46  1  0
 18 47  1  0
 20 48  1  0
 21 49  1  0
 23 50  1  0
 24 51  1  0
 24 52  1  0
M  END
>  <Energy>  (1214) 
247.21098475850474

>  <compound_id>  (1214) 
44119

>  <target_id>  (1214) 
1

>  <reference_id>  (1214) 
27

>  <inspiration_ids>  (1214) 
[115, 27]

>  <energy_score>  (1214) 
223.55451850591442

>  <distance_score>  (1214) 
12.582693016739471

>  <path>  (1214) 
/opt/xchem-fragalysis-2/maxwin/BulkDock/SCRATCH/511016/C44119-P27/C44119-P27.minimised.mol

>  <scratch_subdir>  (1214) 
/opt/xchem-fragalysis-2/maxwin/BulkDock/SCRATCH/511016/C44119-P27

>  <fragmenstein_runtime>  (1214) 
32.679778814315796

>  <fragmenstein_outcome>  (1214) 
too moved

>  <fragmenstein_mode>  (1214) 
expansion

>  <fragmenstein_error>  (1214) 


$$$$
C44120-P115
     RDKit          3D

 54 55  0  0  0  0  0  0  0  0999 V2000
   12.9467   -5.2397   23.7469 C   0  0  0  0  0  0  0  0  0  0  0  0
   12.4226   -6.5101   24.4457 C   0  0  0  0  0  0  0  0  0  0  0  0
   12.5487   -7.8946   23.7284 C   0  0  0  0  0  0  0  0  0  0  0  0
   13.3260   -7.7364   22.3789 C   0  0  0  0  0  0  0  0  0  0  0  0
   13.8430   -9.0482   21.8137 C   0  0  0  0  0  0  0  0  0  0  0  0
   11.1605   -8.6692   23.5362 C   0  0  0  0  0  0  0  0  0  0  0  0
   10.7977   -8.8345   22.4039 O   0  0  0  0  0  0  0  0  0  0  0  0
   10.5255   -9.0250   24.7944 N   0  0  0  0  0  0  0  0  0  0  0  0
    9.2804   -9.7886   25.0753 C   0  0  0  0  0  0  0  0  0  0  0  0
    8.7330   -9.6938   26.5075 C   0  0  0  0  0  0  0  0  0  0  0  0
    7.3738  -10.4683   26.7020 C   0  0  0  0  0  0  0  0  0  0  0  0
    7.3970  -11.9768   26.3057 C   0  0  0  0  0  0  0  0  0  0  0  0
    6.0931  -12.8791   26.3673 N   0  0  0  0  0  0  0  0  0  0  0  0
    5.1635  -13.1920   27.5102 C   0  0  0  0  0  0  0  0  0  0  0  0
    5.1503  -12.7639   28.6192 O   0  0  0  0  0  0  0  0  0  0  0  0
    3.8554  -14.6362   27.1259 C   0  0  0  0  0  0  0  0  0  0  0  0
    2.8856  -16.2267   27.8223 C   0  0  0  0  0  0  0  0  0  0  0  0
    1.3553  -16.4398   28.8078 N   0  0  0  0  0  0  0  0  0  0  0  0
    0.1087  -15.7502   29.0820 C   0  0  0  0  0  0  0  0  0  0  0  0
   -0.2246  -15.6869   30.4308 C   0  0  0  0  0  0  0  0  0  0  0  0
    0.5413  -16.6158   30.9770 N   0  0  0  0  0  0  0  0  0  0  0  0
    1.4085  -17.0355   30.1148 C   0  0  0  0  0  0  0  0  0  0  0  0
    8.1308  -12.0751   24.9327 C   0  0  0  0  0  0  0  0  0  0  0  0
    9.4398  -11.2714   24.7498 C   0  0  0  0  0  0  0  0  0  0  0  0
   12.6511   -4.3589   24.3272 H   0  0  0  0  0  0  0  0  0  0  0  0
   14.0407   -5.2438   23.7094 H   0  0  0  0  0  0  0  0  0  0  0  0
   12.5677   -5.1111   22.7333 H   0  0  0  0  0  0  0  0  0  0  0  0
   12.9826   -6.5923   25.3880 H   0  0  0  0  0  0  0  0  0  0  0  0
   11.3922   -6.3422   24.7683 H   0  0  0  0  0  0  0  0  0  0  0  0
   13.1485   -8.5476   24.3785 H   0  0  0  0  0  0  0  0  0  0  0  0
   12.7109   -7.2449   21.6220 H   0  0  0  0  0  0  0  0  0  0  0  0
   14.2122   -7.1127   22.5370 H   0  0  0  0  0  0  0  0  0  0  0  0
   14.4331   -8.8716   20.9095 H   0  0  0  0  0  0  0  0  0  0  0  0
   14.4988   -9.5435   22.5379 H   0  0  0  0  0  0  0  0  0  0  0  0
   13.0360   -9.7440   21.5718 H   0  0  0  0  0  0  0  0  0  0  0  0
   11.1583   -8.8072   25.5579 H   0  0  0  0  0  0  0  0  0  0  0  0
    8.5378   -9.3697   24.3852 H   0  0  0  0  0  0  0  0  0  0  0  0
    9.4705  -10.0888   27.2175 H   0  0  0  0  0  0  0  0  0  0  0  0
    8.5775   -8.6410   26.7721 H   0  0  0  0  0  0  0  0  0  0  0  0
    6.6438   -9.9205   26.1116 H   0  0  0  0  0  0  0  0  0  0  0  0
    7.0576  -10.3798   27.7479 H   0  0  0  0  0  0  0  0  0  0  0  0
    8.0440  -12.4645   27.0470 H   0  0  0  0  0  0  0  0  0  0  0  0
    5.7778  -13.3450   25.5595 H   0  0  0  0  0  0  0  0  0  0  0  0
    2.9440  -14.0535   26.9980 H   0  0  0  0  0  0  0  0  0  0  0  0
    4.2025  -14.9374   26.1262 H   0  0  0  0  0  0  0  0  0  0  0  0
    3.6434  -16.8850   28.2723 H   0  0  0  0  0  0  0  0  0  0  0  0
    2.5868  -17.0053   27.0926 H   0  0  0  0  0  0  0  0  0  0  0  0
   -0.6071  -15.3186   28.3947 H   0  0  0  0  0  0  0  0  0  0  0  0
   -1.0195  -15.1625   30.9498 H   0  0  0  0  0  0  0  0  0  0  0  0
    2.2528  -17.5887   30.4709 H   0  0  0  0  0  0  0  0  0  0  0  0
    8.4046  -13.1170   24.7625 H   0  0  0  0  0  0  0  0  0  0  0  0
    7.4305  -11.7714   24.1471 H   0  0  0  0  0  0  0  0  0  0  0  0
   10.2190  -11.7090   25.3876 H   0  0  0  0  0  0  0  0  0  0  0  0
    9.7853  -11.3955   23.7159 H   0  0  0  0  0  0  0  0  0  0  0  0
  1  2  1  0
  2  3  1  0
  3  4  1  0
  4  5  1  0
  3  6  1  0
  6  7  2  0
  6  8  1  0
  8  9  1  0
  9 10  1  0
 10 11  1  0
 11 12  1  0
 12 13  1  0
 13 14  1  0
 14 15  2  0
 14 16  1  0
 16 17  1  0
 17 18  1  0
 18 19  1  0
 19 20  2  0
 20 21  1  0
 21 22  2  0
 12 23  1  0
 23 24  1  0
 24  9  1  0
 22 18  1  0
  1 25  1  0
  1 26  1  0
  1 27  1  0
  2 28  1  0
  2 29  1  0
  3 30  1  0
  4 31  1  0
  4 32  1  0
  5 33  1  0
  5 34  1  0
  5 35  1  0
  8 36  1  0
  9 37  1  0
 10 38  1  0
 10 39  1  0
 11 40  1  0
 11 41  1  0
 12 42  1  0
 13 43  1  0
 16 44  1  0
 16 45  1  0
 17 46  1  0
 17 47  1  0
 19 48  1  0
 20 49  1  0
 22 50  1  0
 23 51  1  0
 23 52  1  0
 24 53  1  0
 24 54  1  0
M  END
>  <Energy>  (1215) 
223.92537723730203

>  <compound_id>  (1215) 
44120

>  <target_id>  (1215) 
1

>  <reference_id>  (1215) 
115

>  <inspiration_ids>  (1215) 
[115, 27]

>  <energy_score>  (1215) 
219.31266831771836

>  <distance_score>  (1215) 
11.786947166801298

>  <path>  (1215) 
/opt/xchem-fragalysis-2/maxwin/BulkDock/SCRATCH/511016/C44120-P115/C44120-P115.minimised.mol

>  <scratch_subdir>  (1215) 
/opt/xchem-fragalysis-2/maxwin/BulkDock/SCRATCH/511016/C44120-P115

>  <fragmenstein_runtime>  (1215) 
33.6771354675293

>  <fragmenstein_outcome>  (1215) 
too moved

>  <fragmenstein_mode>  (1215) 
expansion

>  <fragmenstein_error>  (1215) 


$$$$
C44120-P27
     RDKit          3D

 54 55  0  0  0  0  0  0  0  0999 V2000
   12.9210   -5.2221   24.0430 C   0  0  0  0  0  0  0  0  0  0  0  0
   12.3068   -6.3980   24.8108 C   0  0  0  0  0  0  0  0  0  0  0  0
   12.6769   -7.8318   24.3645 C   0  0  0  0  0  0  0  0  0  0  0  0
   12.5578   -8.1736   22.8587 C   0  0  0  0  0  0  0  0  0  0  0  0
   13.5333   -7.4403   21.9379 C   0  0  0  0  0  0  0  0  0  0  0  0
   12.0414   -8.9852   25.2683 C   0  0  0  0  0  0  0  0  0  0  0  0
   12.8243   -9.6360   25.9031 O   0  0  0  0  0  0  0  0  0  0  0  0
   10.6093   -9.1255   25.1081 N   0  0  0  0  0  0  0  0  0  0  0  0
    9.6714  -10.1721   25.5965 C   0  0  0  0  0  0  0  0  0  0  0  0
    8.7612   -9.7387   26.7613 C   0  0  0  0  0  0  0  0  0  0  0  0
    7.3751  -10.4863   26.9007 C   0  0  0  0  0  0  0  0  0  0  0  0
    7.3134  -11.9169   26.3088 C   0  0  0  0  0  0  0  0  0  0  0  0
    6.0163  -12.8089   26.4039 N   0  0  0  0  0  0  0  0  0  0  0  0
    5.1059  -13.1228   27.5864 C   0  0  0  0  0  0  0  0  0  0  0  0
    5.1267  -12.6934   28.6971 O   0  0  0  0  0  0  0  0  0  0  0  0
    3.7918  -14.5590   27.2146 C   0  0  0  0  0  0  0  0  0  0  0  0
    2.8507  -16.1639   27.8806 C   0  0  0  0  0  0  0  0  0  0  0  0
    1.4277  -16.5753   28.9580 N   0  0  0  0  0  0  0  0  0  0  0  0
    1.8640  -17.2081   30.2793 C   0  0  0  0  0  0  0  0  0  0  0  0
    0.7270  -17.8109   30.5586 C   0  0  0  0  0  0  0  0  0  0  0  0
    0.1764  -16.6935   30.8638 N   0  0  0  0  0  0  0  0  0  0  0  0
    0.4212  -16.0577   29.7649 C   0  0  0  0  0  0  0  0  0  0  0  0
    7.8688  -11.8423   24.8551 C   0  0  0  0  0  0  0  0  0  0  0  0
    8.8084  -10.6834   24.4572 C   0  0  0  0  0  0  0  0  0  0  0  0
   14.0111   -5.3083   24.0090 H   0  0  0  0  0  0  0  0  0  0  0  0
   12.5397   -5.1350   23.0276 H   0  0  0  0  0  0  0  0  0  0  0  0
   12.6801   -4.2856   24.5575 H   0  0  0  0  0  0  0  0  0  0  0  0
   12.6402   -6.3015   25.8542 H   0  0  0  0  0  0  0  0  0  0  0  0
   11.2256   -6.2827   24.8817 H   0  0  0  0  0  0  0  0  0  0  0  0
   13.7544   -7.9129   24.5842 H   0  0  0  0  0  0  0  0  0  0  0  0
   11.5292   -8.0846   22.5067 H   0  0  0  0  0  0  0  0  0  0  0  0
   12.7816   -9.2457   22.7604 H   0  0  0  0  0  0  0  0  0  0  0  0
   14.4315   -7.1170   22.4725 H   0  0  0  0  0  0  0  0  0  0  0  0
   13.8756   -8.1224   21.1564 H   0  0  0  0  0  0  0  0  0  0  0  0
   13.0771   -6.5747   21.4548 H   0  0  0  0  0  0  0  0  0  0  0  0
   10.2611   -8.3485   24.5654 H   0  0  0  0  0  0  0  0  0  0  0  0
   10.3033  -10.9966   25.9505 H   0  0  0  0  0  0  0  0  0  0  0  0
    8.5528   -8.6629   26.6930 H   0  0  0  0  0  0  0  0  0  0  0  0
    9.3189   -9.8688   27.6978 H   0  0  0  0  0  0  0  0  0  0  0  0
    6.6353   -9.8452   26.4193 H   0  0  0  0  0  0  0  0  0  0  0  0
    7.0938  -10.5153   27.9601 H   0  0  0  0  0  0  0  0  0  0  0  0
    8.0321  -12.5048   26.8954 H   0  0  0  0  0  0  0  0  0  0  0  0
    5.6746  -13.2769   25.5967 H   0  0  0  0  0  0  0  0  0  0  0  0
    4.1492  -14.8532   26.2159 H   0  0  0  0  0  0  0  0  0  0  0  0
    2.8775  -13.9896   27.0616 H   0  0  0  0  0  0  0  0  0  0  0  0
    2.5591  -16.9166   27.1295 H   0  0  0  0  0  0  0  0  0  0  0  0
    3.6438  -16.7800   28.3241 H   0  0  0  0  0  0  0  0  0  0  0  0
    2.9050  -17.4776   30.3834 H   0  0  0  0  0  0  0  0  0  0  0  0
    0.4035  -18.8213   30.7671 H   0  0  0  0  0  0  0  0  0  0  0  0
   -0.3181  -15.2570   29.7467 H   0  0  0  0  0  0  0  0  0  0  0  0
    8.4008  -12.7792   24.6574 H   0  0  0  0  0  0  0  0  0  0  0  0
    7.0241  -11.7900   24.1672 H   0  0  0  0  0  0  0  0  0  0  0  0
    8.2098   -9.8518   24.0738 H   0  0  0  0  0  0  0  0  0  0  0  0
    9.4335  -11.0064   23.6150 H   0  0  0  0  0  0  0  0  0  0  0  0
  1  2  1  0
  2  3  1  0
  3  4  1  0
  4  5  1  0
  3  6  1  0
  6  7  2  0
  6  8  1  0
  8  9  1  0
  9 10  1  0
 10 11  1  0
 11 12  1  0
 12 13  1  0
 13 14  1  0
 14 15  2  0
 14 16  1  0
 16 17  1  0
 17 18  1  0
 18 19  1  0
 19 20  2  0
 20 21  1  0
 21 22  2  0
 12 23  1  0
 23 24  1  0
 24  9  1  0
 22 18  1  0
  1 25  1  0
  1 26  1  0
  1 27  1  0
  2 28  1  0
  2 29  1  0
  3 30  1  0
  4 31  1  0
  4 32  1  0
  5 33  1  0
  5 34  1  0
  5 35  1  0
  8 36  1  0
  9 37  1  0
 10 38  1  0
 10 39  1  0
 11 40  1  0
 11 41  1  0
 12 42  1  0
 13 43  1  0
 16 44  1  0
 16 45  1  0
 17 46  1  0
 17 47  1  0
 19 48  1  0
 20 49  1  0
 22 50  1  0
 23 51  1  0
 23 52  1  0
 24 53  1  0
 24 54  1  0
M  END
>  <Energy>  (1216) 
294.76823020311906

>  <compound_id>  (1216) 
44120

>  <target_id>  (1216) 
1

>  <reference_id>  (1216) 
27

>  <inspiration_ids>  (1216) 
[115, 27]

>  <energy_score>  (1216) 
290.15552128352715

>  <distance_score>  (1216) 
12.07748814703674

>  <path>  (1216) 
/opt/xchem-fragalysis-2/maxwin/BulkDock/SCRATCH/511016/C44120-P27/C44120-P27.minimised.mol

>  <scratch_subdir>  (1216) 
/opt/xchem-fragalysis-2/maxwin/BulkDock/SCRATCH/511016/C44120-P27

>  <fragmenstein_runtime>  (1216) 
40.586947202682495

>  <fragmenstein_outcome>  (1216) 
too moved

>  <fragmenstein_mode>  (1216) 
expansion

>  <fragmenstein_error>  (1216) 


$$$$
C44114-P115
     RDKit          3D

 57 58  0  0  0  0  0  0  0  0999 V2000
    6.6872   -8.6308   20.6216 C   0  0  0  0  0  0  0  0  0  0  0  0
    5.5116   -9.6086   20.4853 C   0  0  0  0  0  0  0  0  0  0  0  0
    4.3072   -9.0502   19.7114 C   0  0  0  0  0  0  0  0  0  0  0  0
    4.6957   -8.6300   18.2531 C   0  0  0  0  0  0  0  0  0  0  0  0
    5.1046   -7.1603   18.0866 C   0  0  0  0  0  0  0  0  0  0  0  0
    2.8949   -9.8143   19.7108 C   0  0  0  0  0  0  0  0  0  0  0  0
    1.9757   -9.0496   19.5756 O   0  0  0  0  0  0  0  0  0  0  0  0
    2.9167  -11.2638   19.7687 N   0  0  0  0  0  0  0  0  0  0  0  0
    1.8394  -12.2535   19.5813 C   0  0  0  0  0  0  0  0  0  0  0  0
    2.1496  -13.0283   18.3862 C   0  0  0  0  0  0  0  0  0  0  0  0
    1.5029  -14.1272   19.3594 C   0  0  0  0  0  0  0  0  0  0  0  0
    0.8460  -15.3098   19.2646 N   0  0  0  0  0  0  0  0  0  0  0  0
    0.1517  -16.2072   20.1800 C   0  0  0  0  0  0  0  0  0  0  0  0
   -1.0375  -15.9262   20.2724 O   0  0  0  0  0  0  0  0  0  0  0  0
    0.6993  -17.7865   21.0910 C   0  0  0  0  0  0  0  0  0  0  0  0
    2.0371  -19.3122   21.3670 C   0  0  0  0  0  0  0  0  0  0  0  0
    3.2645  -19.1629   22.8272 C   0  0  0  0  0  0  0  0  0  0  0  0
    4.4180  -19.1488   22.0532 C   0  0  0  0  0  0  0  0  0  0  0  0
    3.2694  -19.3971   24.4163 C   0  0  0  0  0  0  0  0  0  0  0  0
   -0.1891  -18.2981   22.0696 N   0  0  0  0  0  0  0  0  0  0  0  0
    0.0330  -19.4050   23.4780 C   0  0  0  0  0  0  0  0  0  0  0  0
   -1.1050  -20.4769   23.3168 C   0  0  0  0  0  0  0  0  0  0  0  0
   -1.8248  -19.6936   22.6639 N   0  0  0  0  0  0  0  0  0  0  0  0
   -1.3254  -18.6242   21.6659 C   0  0  0  0  0  0  0  0  0  0  0  0
    1.5332  -13.8245   20.2917 C   0  0  0  0  0  0  0  0  0  0  0  0
    6.3570   -7.6479   20.9691 H   0  0  0  0  0  0  0  0  0  0  0  0
    7.4119   -9.0215   21.3432 H   0  0  0  0  0  0  0  0  0  0  0  0
    7.2010   -8.5335   19.6686 H   0  0  0  0  0  0  0  0  0  0  0  0
    5.1751   -9.8920   21.4902 H   0  0  0  0  0  0  0  0  0  0  0  0
    5.8676  -10.5309   20.0111 H   0  0  0  0  0  0  0  0  0  0  0  0
    4.0541   -8.1208   20.2482 H   0  0  0  0  0  0  0  0  0  0  0  0
    3.8387   -8.8004   17.5891 H   0  0  0  0  0  0  0  0  0  0  0  0
    5.4876   -9.2877   17.8815 H   0  0  0  0  0  0  0  0  0  0  0  0
    5.3025   -6.9438   17.0322 H   0  0  0  0  0  0  0  0  0  0  0  0
    5.9977   -6.9057   18.6582 H   0  0  0  0  0  0  0  0  0  0  0  0
    4.2943   -6.5008   18.4141 H   0  0  0  0  0  0  0  0  0  0  0  0
    3.8609  -11.5722   19.9741 H   0  0  0  0  0  0  0  0  0  0  0  0
    0.8842  -11.7144   19.5052 H   0  0  0  0  0  0  0  0  0  0  0  0
    1.5855  -12.7757   17.4827 H   0  0  0  0  0  0  0  0  0  0  0  0
    3.2201  -13.1644   18.1855 H   0  0  0  0  0  0  0  0  0  0  0  0
    2.3123  -14.7566   18.8095 H   0  0  0  0  0  0  0  0  0  0  0  0
    0.5295  -13.8374   18.7215 H   0  0  0  0  0  0  0  0  0  0  0  0
    0.3352  -17.9355   20.0859 H   0  0  0  0  0  0  0  0  0  0  0  0
    1.5719  -20.1246   21.8343 H   0  0  0  0  0  0  0  0  0  0  0  0
    2.4135  -19.8195   20.4612 H   0  0  0  0  0  0  0  0  0  0  0  0
    3.3062  -18.0917   23.1785 H   0  0  0  0  0  0  0  0  0  0  0  0
    4.5777  -19.7313   22.8486 H   0  0  0  0  0  0  0  0  0  0  0  0
    4.3358  -19.2972   21.0522 H   0  0  0  0  0  0  0  0  0  0  0  0
    5.1845  -18.3839   21.9221 H   0  0  0  0  0  0  0  0  0  0  0  0
    3.8558  -18.8643   25.1655 H   0  0  0  0  0  0  0  0  0  0  0  0
    2.4741  -18.7570   24.7126 H   0  0  0  0  0  0  0  0  0  0  0  0
    3.5845  -20.3861   24.7197 H   0  0  0  0  0  0  0  0  0  0  0  0
    0.7519  -19.1766   24.2548 H   0  0  0  0  0  0  0  0  0  0  0  0
   -1.3521  -21.4436   23.6880 H   0  0  0  0  0  0  0  0  0  0  0  0
   -1.8361  -18.1659   20.7881 H   0  0  0  0  0  0  0  0  0  0  0  0
    0.6902  -13.6463   21.0655 H   0  0  0  0  0  0  0  0  0  0  0  0
    2.3578  -14.0877   21.0421 H   0  0  0  0  0  0  0  0  0  0  0  0
  1  2  1  0
  2  3  1  0
  3  4  1  0
  4  5  1  0
  3  6  1  0
  6  7  2  0
  6  8  1  0
  8  9  1  0
  9 10  1  0
 10 11  1  0
 11 12  1  0
 12 13  1  0
 13 14  2  0
 13 15  1  0
 15 16  1  0
 16 17  1  0
 17 18  1  0
 17 19  1  0
 15 20  1  0
 20 21  1  0
 21 22  2  0
 22 23  1  0
 23 24  2  0
 12 25  1  0
 25  9  1  0
 24 20  1  0
  1 26  1  0
  1 27  1  0
  1 28  1  0
  2 29  1  0
  2 30  1  0
  3 31  1  0
  4 32  1  0
  4 33  1  0
  5 34  1  0
  5 35  1  0
  5 36  1  0
  8 37  1  0
  9 38  1  0
 10 39  1  0
 10 40  1  0
 11 41  1  0
 11 42  1  0
 15 43  1  0
 16 44  1  0
 16 45  1  0
 17 46  1  0
 18 47  1  0
 18 48  1  0
 18 49  1  0
 19 50  1  0
 19 51  1  0
 19 52  1  0
 21 53  1  0
 22 54  1  0
 24 55  1  0
 25 56  1  0
 25 57  1  0
M  END
>  <Energy>  (1217) 
1139.1575233577362

>  <compound_id>  (1217) 
44114

>  <target_id>  (1217) 
1

>  <reference_id>  (1217) 
115

>  <inspiration_ids>  (1217) 
[115, 27]

>  <energy_score>  (1217) 
1081.217259158885

>  <distance_score>  (1217) 
14.604484789534974

>  <path>  (1217) 
/opt/xchem-fragalysis-2/maxwin/BulkDock/SCRATCH/511016/C44114-P115/C44114-P115.minimised.mol

>  <scratch_subdir>  (1217) 
/opt/xchem-fragalysis-2/maxwin/BulkDock/SCRATCH/511016/C44114-P115

>  <fragmenstein_runtime>  (1217) 
46.285693645477295

>  <fragmenstein_outcome>  (1217) 
too moved

>  <fragmenstein_mode>  (1217) 
expansion

>  <fragmenstein_error>  (1217) 


$$$$
C44114-P27
     RDKit          3D

 57 58  0  0  0  0  0  0  0  0999 V2000
   11.7045  -11.2151   19.8169 C   0  0  0  0  0  0  0  0  0  0  0  0
   10.7084  -11.2837   20.9559 C   0  0  0  0  0  0  0  0  0  0  0  0
   10.0890   -9.9643   21.4263 C   0  0  0  0  0  0  0  0  0  0  0  0
   10.9071   -9.2268   22.5073 C   0  0  0  0  0  0  0  0  0  0  0  0
   12.1919   -8.5465   22.0696 C   0  0  0  0  0  0  0  0  0  0  0  0
    8.6383  -10.1992   21.9724 C   0  0  0  0  0  0  0  0  0  0  0  0
    7.7596   -9.5184   21.5264 O   0  0  0  0  0  0  0  0  0  0  0  0
    8.6251  -11.1775   23.0320 N   0  0  0  0  0  0  0  0  0  0  0  0
    7.5742  -11.5711   23.9477 C   0  0  0  0  0  0  0  0  0  0  0  0
    8.0816  -12.2930   25.0808 C   0  0  0  0  0  0  0  0  0  0  0  0
    7.1429  -13.4071   24.4545 C   0  0  0  0  0  0  0  0  0  0  0  0
    5.3865  -13.0263   24.4725 N   0  0  0  0  0  0  0  0  0  0  0  0
    4.8928  -13.4500   25.7057 C   0  0  0  0  0  0  0  0  0  0  0  0
    4.8543  -12.6947   26.6787 O   0  0  0  0  0  0  0  0  0  0  0  0
    4.2292  -14.9306   25.8582 C   0  0  0  0  0  0  0  0  0  0  0  0
    4.4573  -16.3033   24.4289 C   0  0  0  0  0  0  0  0  0  0  0  0
    3.7741  -18.0815   25.2328 C   0  0  0  0  0  0  0  0  0  0  0  0
    2.8610  -18.4889   24.2866 C   0  0  0  0  0  0  0  0  0  0  0  0
    4.4276  -19.7110   26.0176 C   0  0  0  0  0  0  0  0  0  0  0  0
    3.5246  -15.4194   27.5198 N   0  0  0  0  0  0  0  0  0  0  0  0
    3.6587  -16.7270   27.8790 C   0  0  0  0  0  0  0  0  0  0  0  0
    2.7395  -17.3734   27.1426 C   0  0  0  0  0  0  0  0  0  0  0  0
    1.5680  -17.0352   27.5002 N   0  0  0  0  0  0  0  0  0  0  0  0
    1.9567  -15.8934   27.9267 C   0  0  0  0  0  0  0  0  0  0  0  0
    6.7417  -12.9887   23.7612 C   0  0  0  0  0  0  0  0  0  0  0  0
   11.2765  -10.7123   18.9530 H   0  0  0  0  0  0  0  0  0  0  0  0
   12.6503  -10.7711   20.1262 H   0  0  0  0  0  0  0  0  0  0  0  0
   11.9469  -12.2344   19.4928 H   0  0  0  0  0  0  0  0  0  0  0  0
   11.1881  -11.8004   21.7966 H   0  0  0  0  0  0  0  0  0  0  0  0
    9.9019  -11.9513   20.6229 H   0  0  0  0  0  0  0  0  0  0  0  0
    9.9723   -9.3007   20.5598 H   0  0  0  0  0  0  0  0  0  0  0  0
   11.1635   -9.9311   23.3097 H   0  0  0  0  0  0  0  0  0  0  0  0
   10.2658   -8.4819   22.9885 H   0  0  0  0  0  0  0  0  0  0  0  0
   12.0158   -7.8074   21.2949 H   0  0  0  0  0  0  0  0  0  0  0  0
   12.9330   -9.2719   21.7277 H   0  0  0  0  0  0  0  0  0  0  0  0
   12.6355   -8.0207   22.9225 H   0  0  0  0  0  0  0  0  0  0  0  0
    9.5710  -11.4993   23.1959 H   0  0  0  0  0  0  0  0  0  0  0  0
    6.9182  -10.7235   24.1786 H   0  0  0  0  0  0  0  0  0  0  0  0
    9.1338  -12.5888   25.0752 H   0  0  0  0  0  0  0  0  0  0  0  0
    7.7380  -11.9322   26.0548 H   0  0  0  0  0  0  0  0  0  0  0  0
    7.1076  -13.9176   25.4909 H   0  0  0  0  0  0  0  0  0  0  0  0
    7.5726  -14.5218   24.1801 H   0  0  0  0  0  0  0  0  0  0  0  0
    3.3810  -14.2722   25.6565 H   0  0  0  0  0  0  0  0  0  0  0  0
    3.9389  -15.8757   23.5642 H   0  0  0  0  0  0  0  0  0  0  0  0
    5.5400  -16.2503   24.1769 H   0  0  0  0  0  0  0  0  0  0  0  0
    3.9536  -19.0479   24.8063 H   0  0  0  0  0  0  0  0  0  0  0  0
    3.0978  -19.3541   23.5859 H   0  0  0  0  0  0  0  0  0  0  0  0
    3.1155  -17.7009   23.6127 H   0  0  0  0  0  0  0  0  0  0  0  0
    1.8813  -18.5050   24.6846 H   0  0  0  0  0  0  0  0  0  0  0  0
    5.3998  -20.1631   25.8683 H   0  0  0  0  0  0  0  0  0  0  0  0
    4.3338  -19.7352   27.0838 H   0  0  0  0  0  0  0  0  0  0  0  0
    3.9666  -20.5708   25.4840 H   0  0  0  0  0  0  0  0  0  0  0  0
    4.1417  -17.0850   28.7741 H   0  0  0  0  0  0  0  0  0  0  0  0
    2.8346  -18.3651   26.8663 H   0  0  0  0  0  0  0  0  0  0  0  0
    1.3825  -15.6763   28.8283 H   0  0  0  0  0  0  0  0  0  0  0  0
    6.1552  -12.3894   22.9499 H   0  0  0  0  0  0  0  0  0  0  0  0
    6.8579  -13.6132   22.7034 H   0  0  0  0  0  0  0  0  0  0  0  0
  1  2  1  0
  2  3  1  0
  3  4  1  0
  4  5  1  0
  3  6  1  0
  6  7  2  0
  6  8  1  0
  8  9  1  0
  9 10  1  0
 10 11  1  0
 11 12  1  0
 12 13  1  0
 13 14  2  0
 13 15  1  0
 15 16  1  0
 16 17  1  0
 17 18  1  0
 17 19  1  0
 15 20  1  0
 20 21  1  0
 21 22  2  0
 22 23  1  0
 23 24  2  0
 12 25  1  0
 25  9  1  0
 24 20  1  0
  1 26  1  0
  1 27  1  0
  1 28  1  0
  2 29  1  0
  2 30  1  0
  3 31  1  0
  4 32  1  0
  4 33  1  0
  5 34  1  0
  5 35  1  0
  5 36  1  0
  8 37  1  0
  9 38  1  0
 10 39  1  0
 10 40  1  0
 11 41  1  0
 11 42  1  0
 15 43  1  0
 16 44  1  0
 16 45  1  0
 17 46  1  0
 18 47  1  0
 18 48  1  0
 18 49  1  0
 19 50  1  0
 19 51  1  0
 19 52  1  0
 21 53  1  0
 22 54  1  0
 24 55  1  0
 25 56  1  0
 25 57  1  0
M  END
>  <Energy>  (1218) 
1135.1345548364513

>  <compound_id>  (1218) 
44114

>  <target_id>  (1218) 
1

>  <reference_id>  (1218) 
27

>  <inspiration_ids>  (1218) 
[115, 27]

>  <energy_score>  (1218) 
1077.194290637616

>  <distance_score>  (1218) 
13.50758996308215

>  <path>  (1218) 
/opt/xchem-fragalysis-2/maxwin/BulkDock/SCRATCH/511016/C44114-P27/C44114-P27.minimised.mol

>  <scratch_subdir>  (1218) 
/opt/xchem-fragalysis-2/maxwin/BulkDock/SCRATCH/511016/C44114-P27

>  <fragmenstein_runtime>  (1218) 
42.74473309516907

>  <fragmenstein_outcome>  (1218) 
too moved

>  <fragmenstein_mode>  (1218) 
expansion

>  <fragmenstein_error>  (1218) 


$$$$
C44109-P115
     RDKit          3D

 51 52  0  0  0  0  0  0  0  0999 V2000
   13.6052   -3.8417   21.5422 C   0  0  0  0  0  0  0  0  0  0  0  0
   13.4561   -5.3558   21.4135 C   0  0  0  0  0  0  0  0  0  0  0  0
   14.7528   -6.0859   21.0578 C   0  0  0  0  0  0  0  0  0  0  0  0
   15.3906   -5.6518   19.6884 C   0  0  0  0  0  0  0  0  0  0  0  0
   14.6333   -4.6964   18.7618 C   0  0  0  0  0  0  0  0  0  0  0  0
   14.8690   -7.6736   21.2736 C   0  0  0  0  0  0  0  0  0  0  0  0
   15.9514   -8.1235   21.0120 O   0  0  0  0  0  0  0  0  0  0  0  0
   13.6849   -8.3152   21.8126 N   0  0  0  0  0  0  0  0  0  0  0  0
   13.4689   -9.6826   22.2955 C   0  0  0  0  0  0  0  0  0  0  0  0
   13.9751  -10.7224   21.4398 C   0  0  0  0  0  0  0  0  0  0  0  0
   12.4365  -11.1108   21.4070 C   0  0  0  0  0  0  0  0  0  0  0  0
   11.6420  -11.5861   22.9570 N   0  0  0  0  0  0  0  0  0  0  0  0
   11.7797  -12.9698   23.0737 C   0  0  0  0  0  0  0  0  0  0  0  0
   12.7254  -13.5047   23.6425 O   0  0  0  0  0  0  0  0  0  0  0  0
   10.6087  -13.8397   22.5470 C   0  0  0  0  0  0  0  0  0  0  0  0
   10.2814  -15.0100   23.5446 C   0  0  0  0  0  0  0  0  0  0  0  0
    9.6254  -14.4598   24.8195 C   0  0  0  0  0  0  0  0  0  0  0  0
    9.5032  -16.1455   23.0058 N   0  0  0  0  0  0  0  0  0  0  0  0
    9.9813  -17.4185   22.7878 C   0  0  0  0  0  0  0  0  0  0  0  0
    8.9223  -18.1513   22.3065 C   0  0  0  0  0  0  0  0  0  0  0  0
    7.7978  -17.3914   22.2875 N   0  0  0  0  0  0  0  0  0  0  0  0
    8.1703  -16.1963   22.7166 C   0  0  0  0  0  0  0  0  0  0  0  0
   12.0651  -10.5036   21.9664 C   0  0  0  0  0  0  0  0  0  0  0  0
   13.0258   -3.5033   22.4060 H   0  0  0  0  0  0  0  0  0  0  0  0
   13.2142   -3.3306   20.6608 H   0  0  0  0  0  0  0  0  0  0  0  0
   14.6422   -3.5340   21.7063 H   0  0  0  0  0  0  0  0  0  0  0  0
   13.1199   -5.7093   22.3953 H   0  0  0  0  0  0  0  0  0  0  0  0
   12.6632   -5.5998   20.7011 H   0  0  0  0  0  0  0  0  0  0  0  0
   15.4694   -5.7379   21.8219 H   0  0  0  0  0  0  0  0  0  0  0  0
   16.3610   -5.1860   19.9085 H   0  0  0  0  0  0  0  0  0  0  0  0
   15.6425   -6.5481   19.1121 H   0  0  0  0  0  0  0  0  0  0  0  0
   13.5876   -4.9825   18.6313 H   0  0  0  0  0  0  0  0  0  0  0  0
   14.6880   -3.6673   19.1238 H   0  0  0  0  0  0  0  0  0  0  0  0
   15.1075   -4.6911   17.7741 H   0  0  0  0  0  0  0  0  0  0  0  0
   12.9796   -7.6142   21.9833 H   0  0  0  0  0  0  0  0  0  0  0  0
   13.7769   -9.7628   23.3443 H   0  0  0  0  0  0  0  0  0  0  0  0
   14.3459  -10.4347   20.4531 H   0  0  0  0  0  0  0  0  0  0  0  0
   14.6005  -11.4687   21.9382 H   0  0  0  0  0  0  0  0  0  0  0  0
   11.8597  -11.2494   20.3392 H   0  0  0  0  0  0  0  0  0  0  0  0
   12.7300  -12.2137   21.1633 H   0  0  0  0  0  0  0  0  0  0  0  0
   10.9184  -14.2489   21.5788 H   0  0  0  0  0  0  0  0  0  0  0  0
    9.7228  -13.2167   22.3831 H   0  0  0  0  0  0  0  0  0  0  0  0
   11.2322  -15.4650   23.8537 H   0  0  0  0  0  0  0  0  0  0  0  0
    8.6599  -13.9896   24.6043 H   0  0  0  0  0  0  0  0  0  0  0  0
   10.2626  -13.7103   25.3000 H   0  0  0  0  0  0  0  0  0  0  0  0
    9.4544  -15.2579   25.5491 H   0  0  0  0  0  0  0  0  0  0  0  0
   11.0176  -17.6754   22.9574 H   0  0  0  0  0  0  0  0  0  0  0  0
    8.9232  -19.1828   21.9833 H   0  0  0  0  0  0  0  0  0  0  0  0
    7.5276  -15.3361   22.8414 H   0  0  0  0  0  0  0  0  0  0  0  0
   11.1414   -9.8841   21.4166 H   0  0  0  0  0  0  0  0  0  0  0  0
   11.6257   -9.7851   22.7737 H   0  0  0  0  0  0  0  0  0  0  0  0
  1  2  1  0
  2  3  1  0
  3  4  1  0
  4  5  1  0
  3  6  1  0
  6  7  2  0
  6  8  1  0
  8  9  1  0
  9 10  1  0
 10 11  1  0
 11 12  1  0
 12 13  1  0
 13 14  2  0
 13 15  1  0
 15 16  1  0
 16 17  1  0
 16 18  1  0
 18 19  1  0
 19 20  2  0
 20 21  1  0
 21 22  2  0
 12 23  1  0
 23  9  1  0
 22 18  1  0
  1 24  1  0
  1 25  1  0
  1 26  1  0
  2 27  1  0
  2 28  1  0
  3 29  1  0
  4 30  1  0
  4 31  1  0
  5 32  1  0
  5 33  1  0
  5 34  1  0
  8 35  1  0
  9 36  1  0
 10 37  1  0
 10 38  1  0
 11 39  1  0
 11 40  1  0
 15 41  1  0
 15 42  1  0
 16 43  1  0
 17 44  1  0
 17 45  1  0
 17 46  1  0
 19 47  1  0
 20 48  1  0
 22 49  1  0
 23 50  1  0
 23 51  1  0
M  END
>  <Energy>  (1219) 
543.56397973061337

>  <compound_id>  (1219) 
44109

>  <target_id>  (1219) 
1

>  <reference_id>  (1219) 
115

>  <inspiration_ids>  (1219) 
[115, 27]

>  <energy_score>  (1219) 
535.3962920795987

>  <distance_score>  (1219) 
13.669471235785839

>  <path>  (1219) 
/opt/xchem-fragalysis-2/maxwin/BulkDock/SCRATCH/511016/C44109-P115/C44109-P115.minimised.mol

>  <scratch_subdir>  (1219) 
/opt/xchem-fragalysis-2/maxwin/BulkDock/SCRATCH/511016/C44109-P115

>  <fragmenstein_runtime>  (1219) 
44.743714570999146

>  <fragmenstein_outcome>  (1219) 
too moved

>  <fragmenstein_mode>  (1219) 
expansion

>  <fragmenstein_error>  (1219) 


$$$$
C44109-P27
     RDKit          3D

 51 52  0  0  0  0  0  0  0  0999 V2000
    6.2956   -1.9788   22.5530 C   0  0  0  0  0  0  0  0  0  0  0  0
    5.9232   -3.3344   23.1532 C   0  0  0  0  0  0  0  0  0  0  0  0
    4.6945   -4.0045   22.4847 C   0  0  0  0  0  0  0  0  0  0  0  0
    4.9991   -4.5556   21.0647 C   0  0  0  0  0  0  0  0  0  0  0  0
    6.2496   -5.4102   20.8948 C   0  0  0  0  0  0  0  0  0  0  0  0
    3.9848   -5.0627   23.4327 C   0  0  0  0  0  0  0  0  0  0  0  0
    4.2271   -6.2291   23.3130 O   0  0  0  0  0  0  0  0  0  0  0  0
    3.0963   -4.3707   24.3484 N   0  0  0  0  0  0  0  0  0  0  0  0
    2.2990   -4.8642   25.4645 C   0  0  0  0  0  0  0  0  0  0  0  0
    2.9813   -5.6854   26.4228 C   0  0  0  0  0  0  0  0  0  0  0  0
    1.8298   -6.6949   25.9917 C   0  0  0  0  0  0  0  0  0  0  0  0
    0.0764   -6.1880   26.1424 N   0  0  0  0  0  0  0  0  0  0  0  0
   -0.3675   -6.6250   27.3998 C   0  0  0  0  0  0  0  0  0  0  0  0
   -0.3037   -5.9351   28.4096 O   0  0  0  0  0  0  0  0  0  0  0  0
   -1.0649   -8.0153   27.4279 C   0  0  0  0  0  0  0  0  0  0  0  0
   -2.0273   -8.3092   28.6421 C   0  0  0  0  0  0  0  0  0  0  0  0
   -1.1999   -8.4690   29.9311 C   0  0  0  0  0  0  0  0  0  0  0  0
   -2.9834   -9.4518   28.4692 N   0  0  0  0  0  0  0  0  0  0  0  0
   -3.8532   -9.6347   27.4155 C   0  0  0  0  0  0  0  0  0  0  0  0
   -4.7168  -10.6394   27.7939 C   0  0  0  0  0  0  0  0  0  0  0  0
   -4.3975  -11.1065   29.0328 N   0  0  0  0  0  0  0  0  0  0  0  0
   -3.3743  -10.3758   29.4196 C   0  0  0  0  0  0  0  0  0  0  0  0
    1.3634   -6.2197   25.3595 C   0  0  0  0  0  0  0  0  0  0  0  0
    6.4963   -2.0413   21.4886 H   0  0  0  0  0  0  0  0  0  0  0  0
    7.1771   -1.5732   23.0573 H   0  0  0  0  0  0  0  0  0  0  0  0
    5.4766   -1.2656   22.6943 H   0  0  0  0  0  0  0  0  0  0  0  0
    5.7041   -3.1753   24.2167 H   0  0  0  0  0  0  0  0  0  0  0  0
    6.7882   -4.0045   23.1349 H   0  0  0  0  0  0  0  0  0  0  0  0
    3.9411   -3.2204   22.3174 H   0  0  0  0  0  0  0  0  0  0  0  0
    4.1372   -5.1485   20.7326 H   0  0  0  0  0  0  0  0  0  0  0  0
    5.0548   -3.7049   20.3793 H   0  0  0  0  0  0  0  0  0  0  0  0
    6.3059   -5.7887   19.8695 H   0  0  0  0  0  0  0  0  0  0  0  0
    7.1596   -4.8457   21.0952 H   0  0  0  0  0  0  0  0  0  0  0  0
    6.2313   -6.2732   21.5664 H   0  0  0  0  0  0  0  0  0  0  0  0
    3.0777   -3.3852   24.1108 H   0  0  0  0  0  0  0  0  0  0  0  0
    1.7499   -4.0230   25.9057 H   0  0  0  0  0  0  0  0  0  0  0  0
    3.9755   -6.0568   26.1650 H   0  0  0  0  0  0  0  0  0  0  0  0
    2.8979   -5.3515   27.4609 H   0  0  0  0  0  0  0  0  0  0  0  0
    2.1511   -7.8135   25.6667 H   0  0  0  0  0  0  0  0  0  0  0  0
    1.8315   -7.1802   27.0515 H   0  0  0  0  0  0  0  0  0  0  0  0
   -1.6276   -8.0960   26.4935 H   0  0  0  0  0  0  0  0  0  0  0  0
   -0.2723   -8.7617   27.4489 H   0  0  0  0  0  0  0  0  0  0  0  0
   -2.6874   -7.4403   28.7685 H   0  0  0  0  0  0  0  0  0  0  0  0
   -0.6057   -9.3888   29.9075 H   0  0  0  0  0  0  0  0  0  0  0  0
   -1.8466   -8.5030   30.8147 H   0  0  0  0  0  0  0  0  0  0  0  0
   -0.5098   -7.6370   30.0884 H   0  0  0  0  0  0  0  0  0  0  0  0
   -3.8259   -9.0131   26.5328 H   0  0  0  0  0  0  0  0  0  0  0  0
   -5.5595  -11.0324   27.2416 H   0  0  0  0  0  0  0  0  0  0  0  0
   -2.8924  -10.4626   30.3814 H   0  0  0  0  0  0  0  0  0  0  0  0
    0.7574   -5.5672   24.6085 H   0  0  0  0  0  0  0  0  0  0  0  0
    1.3318   -6.8419   24.2864 H   0  0  0  0  0  0  0  0  0  0  0  0
  1  2  1  0
  2  3  1  0
  3  4  1  0
  4  5  1  0
  3  6  1  0
  6  7  2  0
  6  8  1  0
  8  9  1  0
  9 10  1  0
 10 11  1  0
 11 12  1  0
 12 13  1  0
 13 14  2  0
 13 15  1  0
 15 16  1  0
 16 17  1  0
 16 18  1  0
 18 19  1  0
 19 20  2  0
 20 21  1  0
 21 22  2  0
 12 23  1  0
 23  9  1  0
 22 18  1  0
  1 24  1  0
  1 25  1  0
  1 26  1  0
  2 27  1  0
  2 28  1  0
  3 29  1  0
  4 30  1  0
  4 31  1  0
  5 32  1  0
  5 33  1  0
  5 34  1  0
  8 35  1  0
  9 36  1  0
 10 37  1  0
 10 38  1  0
 11 39  1  0
 11 40  1  0
 15 41  1  0
 15 42  1  0
 16 43  1  0
 17 44  1  0
 17 45  1  0
 17 46  1  0
 19 47  1  0
 20 48  1  0
 22 49  1  0
 23 50  1  0
 23 51  1  0
M  END
>  <Energy>  (1220) 
530.47837307790871

>  <compound_id>  (1220) 
44109

>  <target_id>  (1220) 
1

>  <reference_id>  (1220) 
27

>  <inspiration_ids>  (1220) 
[115, 27]

>  <energy_score>  (1220) 
522.3106854268905

>  <distance_score>  (1220) 
14.641022824988385

>  <path>  (1220) 
/opt/xchem-fragalysis-2/maxwin/BulkDock/SCRATCH/511016/C44109-P27/C44109-P27.minimised.mol

>  <scratch_subdir>  (1220) 
/opt/xchem-fragalysis-2/maxwin/BulkDock/SCRATCH/511016/C44109-P27

>  <fragmenstein_runtime>  (1220) 
39.85164427757263

>  <fragmenstein_outcome>  (1220) 
too moved

>  <fragmenstein_mode>  (1220) 
expansion

>  <fragmenstein_error>  (1220) 


$$$$
C24516-P115
     RDKit          3D

 46 47  0  0  0  0  0  0  0  0999 V2000
    9.4168   -9.5157   22.6167 C   0  0  0  0  0  0  0  0  0  0  0  0
    8.6716   -9.7009   23.9477 C   0  0  0  0  0  0  0  0  0  0  0  0
    7.3961  -10.6565   23.9671 C   0  0  0  0  0  0  0  0  0  0  0  0
    6.1596   -9.8911   23.4390 C   0  0  0  0  0  0  0  0  0  0  0  0
    6.3035   -9.1393   22.1098 C   0  0  0  0  0  0  0  0  0  0  0  0
    7.1802  -11.2851   25.4703 C   0  0  0  0  0  0  0  0  0  0  0  0
    7.6977  -10.6578   26.3562 O   0  0  0  0  0  0  0  0  0  0  0  0
    6.4697  -12.5735   25.4990 N   0  0  0  0  0  0  0  0  0  0  0  0
    6.2608  -13.5386   26.6003 C   0  0  0  0  0  0  0  0  0  0  0  0
    5.5439  -13.3164   27.8108 C   0  0  0  0  0  0  0  0  0  0  0  0
    4.5810  -14.7525   27.1410 C   0  0  0  0  0  0  0  0  0  0  0  0
    3.7119  -15.4532   27.8568 N   0  0  0  0  0  0  0  0  0  0  0  0
    2.7215  -16.9228   27.6033 C   0  0  0  0  0  0  0  0  0  0  0  0
    2.6893  -17.6912   26.7175 O   0  0  0  0  0  0  0  0  0  0  0  0
    1.2957  -17.2521   29.0355 C   0  0  0  0  0  0  0  0  0  0  0  0
    1.7010  -16.8449   30.3248 O   0  0  0  0  0  0  0  0  0  0  0  0
    0.4137  -18.9493   29.7495 C   0  0  0  0  0  0  0  0  0  0  0  0
   -0.3890  -20.1592   29.3442 C   0  0  0  0  0  0  0  0  0  0  0  0
   -0.4388  -21.1745   30.2694 N   0  0  0  0  0  0  0  0  0  0  0  0
    0.5739  -20.8910   31.0685 C   0  0  0  0  0  0  0  0  0  0  0  0
    1.0387  -19.6804   30.7907 N   0  0  0  0  0  0  0  0  0  0  0  0
    5.2011  -14.8899   26.6290 C   0  0  0  0  0  0  0  0  0  0  0  0
    8.8606   -8.9391   21.8805 H   0  0  0  0  0  0  0  0  0  0  0  0
    9.6552  -10.4900   22.1784 H   0  0  0  0  0  0  0  0  0  0  0  0
   10.3610   -8.9905   22.7952 H   0  0  0  0  0  0  0  0  0  0  0  0
    8.3954   -8.7181   24.3495 H   0  0  0  0  0  0  0  0  0  0  0  0
    9.4080  -10.1169   24.6476 H   0  0  0  0  0  0  0  0  0  0  0  0
    7.6089  -11.5090   23.3094 H   0  0  0  0  0  0  0  0  0  0  0  0
    5.8249   -9.1809   24.2058 H   0  0  0  0  0  0  0  0  0  0  0  0
    5.3414  -10.6154   23.3354 H   0  0  0  0  0  0  0  0  0  0  0  0
    5.3123   -8.8397   21.7523 H   0  0  0  0  0  0  0  0  0  0  0  0
    6.7558   -9.7738   21.3425 H   0  0  0  0  0  0  0  0  0  0  0  0
    6.8833   -8.2213   22.2339 H   0  0  0  0  0  0  0  0  0  0  0  0
    6.2359  -12.8445   24.5502 H   0  0  0  0  0  0  0  0  0  0  0  0
    7.2817  -13.8859   26.8138 H   0  0  0  0  0  0  0  0  0  0  0  0
    6.1432  -13.6175   28.6826 H   0  0  0  0  0  0  0  0  0  0  0  0
    5.0829  -12.3663   28.0219 H   0  0  0  0  0  0  0  0  0  0  0  0
    3.6337  -14.1113   26.9406 H   0  0  0  0  0  0  0  0  0  0  0  0
    5.0510  -15.0992   28.3051 H   0  0  0  0  0  0  0  0  0  0  0  0
    0.6236  -16.4492   28.7701 H   0  0  0  0  0  0  0  0  0  0  0  0
    2.0872  -17.6806   30.6495 H   0  0  0  0  0  0  0  0  0  0  0  0
   -0.9445  -20.4236   28.4482 H   0  0  0  0  0  0  0  0  0  0  0  0
   -0.9656  -22.0342   30.2087 H   0  0  0  0  0  0  0  0  0  0  0  0
    0.9506  -21.5609   31.8305 H   0  0  0  0  0  0  0  0  0  0  0  0
    6.2223  -15.5153   27.0321 H   0  0  0  0  0  0  0  0  0  0  0  0
    4.9514  -15.0486   25.4236 H   0  0  0  0  0  0  0  0  0  0  0  0
  1  2  1  0
  2  3  1  0
  3  4  1  0
  4  5  1  0
  3  6  1  0
  6  7  2  0
  6  8  1  0
  8  9  1  0
  9 10  1  0
 10 11  1  0
 11 12  1  0
 12 13  1  0
 13 14  2  0
 13 15  1  0
 15 16  1  0
 15 17  1  0
 17 18  2  0
 18 19  1  0
 19 20  1  0
 20 21  2  0
 12 22  1  0
 22  9  1  0
 21 17  1  0
  1 23  1  0
  1 24  1  0
  1 25  1  0
  2 26  1  0
  2 27  1  0
  3 28  1  0
  4 29  1  0
  4 30  1  0
  5 31  1  0
  5 32  1  0
  5 33  1  0
  8 34  1  0
  9 35  1  0
 10 36  1  0
 10 37  1  0
 11 38  1  0
 11 39  1  0
 15 40  1  0
 16 41  1  0
 18 42  1  0
 19 43  1  0
 20 44  1  0
 22 45  1  0
 22 46  1  0
M  END
>  <Energy>  (1221) 
1126.1776732577159

>  <compound_id>  (1221) 
24516

>  <target_id>  (1221) 
1

>  <reference_id>  (1221) 
115

>  <inspiration_ids>  (1221) 
[115, 27]

>  <energy_score>  (1221) 
1035.9009737918618

>  <distance_score>  (1221) 
14.215295804578133

>  <path>  (1221) 
/opt/xchem-fragalysis-2/maxwin/BulkDock/SCRATCH/511016/C24516-P115/C24516-P115.minimised.mol

>  <scratch_subdir>  (1221) 
/opt/xchem-fragalysis-2/maxwin/BulkDock/SCRATCH/511016/C24516-P115

>  <fragmenstein_runtime>  (1221) 
26.940840244293213

>  <fragmenstein_outcome>  (1221) 
too moved

>  <fragmenstein_mode>  (1221) 
expansion

>  <fragmenstein_error>  (1221) 


$$$$
C24516-P27
     RDKit          3D

 46 47  0  0  0  0  0  0  0  0999 V2000
   15.1115   -3.6108   22.3695 C   0  0  0  0  0  0  0  0  0  0  0  0
   15.1024   -5.1257   22.1396 C   0  0  0  0  0  0  0  0  0  0  0  0
   13.6917   -5.7067   21.9192 C   0  0  0  0  0  0  0  0  0  0  0  0
   13.0276   -5.0573   20.6686 C   0  0  0  0  0  0  0  0  0  0  0  0
   13.8993   -4.7913   19.4417 C   0  0  0  0  0  0  0  0  0  0  0  0
   13.6661   -7.3002   21.8543 C   0  0  0  0  0  0  0  0  0  0  0  0
   14.5230   -7.8435   21.2163 O   0  0  0  0  0  0  0  0  0  0  0  0
   12.4965   -7.8490   22.5383 N   0  0  0  0  0  0  0  0  0  0  0  0
   11.9521   -9.2247   22.5760 C   0  0  0  0  0  0  0  0  0  0  0  0
   12.4708  -10.0026   23.6544 C   0  0  0  0  0  0  0  0  0  0  0  0
   10.9741   -9.6526   24.1359 C   0  0  0  0  0  0  0  0  0  0  0  0
    9.5481  -10.4574   23.1874 N   0  0  0  0  0  0  0  0  0  0  0  0
    8.4244  -11.4408   23.9764 C   0  0  0  0  0  0  0  0  0  0  0  0
    8.2484  -11.6839   25.0851 O   0  0  0  0  0  0  0  0  0  0  0  0
    7.5183  -12.0515   22.7961 C   0  0  0  0  0  0  0  0  0  0  0  0
    7.1443  -11.0117   21.8740 O   0  0  0  0  0  0  0  0  0  0  0  0
    6.2391  -12.8598   23.2177 C   0  0  0  0  0  0  0  0  0  0  0  0
    5.0103  -12.8907   22.5627 C   0  0  0  0  0  0  0  0  0  0  0  0
    4.2200  -13.7776   23.2374 N   0  0  0  0  0  0  0  0  0  0  0  0
    4.9609  -14.2379   24.2773 C   0  0  0  0  0  0  0  0  0  0  0  0
    6.1859  -13.7645   24.2655 N   0  0  0  0  0  0  0  0  0  0  0  0
   10.5292   -9.5395   23.5688 C   0  0  0  0  0  0  0  0  0  0  0  0
   14.7485   -3.0418   21.5124 H   0  0  0  0  0  0  0  0  0  0  0  0
   16.1327   -3.2763   22.5796 H   0  0  0  0  0  0  0  0  0  0  0  0
   14.4911   -3.3520   23.2339 H   0  0  0  0  0  0  0  0  0  0  0  0
   15.7674   -5.3760   21.3055 H   0  0  0  0  0  0  0  0  0  0  0  0
   15.5418   -5.6102   23.0210 H   0  0  0  0  0  0  0  0  0  0  0  0
   13.0907   -5.4219   22.7931 H   0  0  0  0  0  0  0  0  0  0  0  0
   12.5953   -4.0987   20.9754 H   0  0  0  0  0  0  0  0  0  0  0  0
   12.2011   -5.6869   20.3522 H   0  0  0  0  0  0  0  0  0  0  0  0
   13.2753   -4.6566   18.5529 H   0  0  0  0  0  0  0  0  0  0  0  0
   14.5954   -5.6123   19.2626 H   0  0  0  0  0  0  0  0  0  0  0  0
   14.4899   -3.8788   19.5525 H   0  0  0  0  0  0  0  0  0  0  0  0
   12.0358   -7.1104   23.0479 H   0  0  0  0  0  0  0  0  0  0  0  0
   11.9488   -9.7227   21.6022 H   0  0  0  0  0  0  0  0  0  0  0  0
   12.6069  -11.0710   23.4649 H   0  0  0  0  0  0  0  0  0  0  0  0
   13.2333   -9.5550   24.2951 H   0  0  0  0  0  0  0  0  0  0  0  0
   10.9998  -10.5659   24.9804 H   0  0  0  0  0  0  0  0  0  0  0  0
   10.8835   -8.9324   25.1819 H   0  0  0  0  0  0  0  0  0  0  0  0
    8.1627  -12.7516   22.2505 H   0  0  0  0  0  0  0  0  0  0  0  0
    6.5994  -10.4046   22.4017 H   0  0  0  0  0  0  0  0  0  0  0  0
    4.6537  -12.3704   21.6849 H   0  0  0  0  0  0  0  0  0  0  0  0
    3.2511  -13.9835   23.0251 H   0  0  0  0  0  0  0  0  0  0  0  0
    4.5567  -14.8741   25.0357 H   0  0  0  0  0  0  0  0  0  0  0  0
   10.1083   -9.0269   22.5486 H   0  0  0  0  0  0  0  0  0  0  0  0
    9.7845   -8.4605   23.8700 H   0  0  0  0  0  0  0  0  0  0  0  0
  1  2  1  0
  2  3  1  0
  3  4  1  0
  4  5  1  0
  3  6  1  0
  6  7  2  0
  6  8  1  0
  8  9  1  0
  9 10  1  0
 10 11  1  0
 11 12  1  0
 12 13  1  0
 13 14  2  0
 13 15  1  0
 15 16  1  0
 15 17  1  0
 17 18  2  0
 18 19  1  0
 19 20  1  0
 20 21  2  0
 12 22  1  0
 22  9  1  0
 21 17  1  0
  1 23  1  0
  1 24  1  0
  1 25  1  0
  2 26  1  0
  2 27  1  0
  3 28  1  0
  4 29  1  0
  4 30  1  0
  5 31  1  0
  5 32  1  0
  5 33  1  0
  8 34  1  0
  9 35  1  0
 10 36  1  0
 10 37  1  0
 11 38  1  0
 11 39  1  0
 15 40  1  0
 16 41  1  0
 18 42  1  0
 19 43  1  0
 20 44  1  0
 22 45  1  0
 22 46  1  0
M  END
>  <Energy>  (1222) 
805.03934494628959

>  <compound_id>  (1222) 
24516

>  <target_id>  (1222) 
1

>  <reference_id>  (1222) 
27

>  <inspiration_ids>  (1222) 
[115, 27]

>  <energy_score>  (1222) 
714.7626454804343

>  <distance_score>  (1222) 
13.106970697294178

>  <path>  (1222) 
/opt/xchem-fragalysis-2/maxwin/BulkDock/SCRATCH/511016/C24516-P27/C24516-P27.minimised.mol

>  <scratch_subdir>  (1222) 
/opt/xchem-fragalysis-2/maxwin/BulkDock/SCRATCH/511016/C24516-P27

>  <fragmenstein_runtime>  (1222) 
40.77294898033142

>  <fragmenstein_outcome>  (1222) 
too moved

>  <fragmenstein_mode>  (1222) 
expansion

>  <fragmenstein_error>  (1222) 


$$$$
C44132-P115
     RDKit          3D

 48 49  0  0  0  0  0  0  0  0999 V2000
   11.2587   -8.8601   22.0509 C   0  0  0  0  0  0  0  0  0  0  0  0
    9.9714   -9.2669   22.7508 C   0  0  0  0  0  0  0  0  0  0  0  0
    8.9131   -9.8957   21.8105 C   0  0  0  0  0  0  0  0  0  0  0  0
    8.2251   -8.8100   20.9533 C   0  0  0  0  0  0  0  0  0  0  0  0
    7.3700   -9.3856   19.8342 C   0  0  0  0  0  0  0  0  0  0  0  0
    7.8855  -10.7303   22.6450 C   0  0  0  0  0  0  0  0  0  0  0  0
    6.7669  -10.3434   22.8089 O   0  0  0  0  0  0  0  0  0  0  0  0
    8.5342  -11.9364   23.0813 N   0  0  0  0  0  0  0  0  0  0  0  0
    8.0191  -13.0896   23.7639 C   0  0  0  0  0  0  0  0  0  0  0  0
    8.9375  -13.4687   24.8173 C   0  0  0  0  0  0  0  0  0  0  0  0
    7.5952  -13.7980   25.6576 C   0  0  0  0  0  0  0  0  0  0  0  0
    5.9493  -12.8533   25.7474 N   0  0  0  0  0  0  0  0  0  0  0  0
    5.2785  -13.2411   27.0282 C   0  0  0  0  0  0  0  0  0  0  0  0
    5.4511  -12.6169   28.0704 O   0  0  0  0  0  0  0  0  0  0  0  0
    4.0268  -14.6726   26.9070 C   0  0  0  0  0  0  0  0  0  0  0  0
    3.3827  -16.2781   27.6543 C   0  0  0  0  0  0  0  0  0  0  0  0
    1.6873  -16.5623   28.1633 C   0  0  0  0  0  0  0  0  0  0  0  0
    0.9306  -17.6369   28.2671 N   0  0  0  0  0  0  0  0  0  0  0  0
    0.8977  -17.9225   29.9432 C   0  0  0  0  0  0  0  0  0  0  0  0
    0.9863  -16.6967   30.4079 C   0  0  0  0  0  0  0  0  0  0  0  0
    0.9003  -16.0557   29.1757 N   0  0  0  0  0  0  0  0  0  0  0  0
    7.1219  -13.1538   25.1198 C   0  0  0  0  0  0  0  0  0  0  0  0
   11.9315   -8.3548   22.7501 H   0  0  0  0  0  0  0  0  0  0  0  0
   11.7762   -9.7477   21.6729 H   0  0  0  0  0  0  0  0  0  0  0  0
   11.0595   -8.1998   21.2160 H   0  0  0  0  0  0  0  0  0  0  0  0
   10.2463   -9.9762   23.5412 H   0  0  0  0  0  0  0  0  0  0  0  0
    9.5281   -8.4212   23.2830 H   0  0  0  0  0  0  0  0  0  0  0  0
    9.4158  -10.5924   21.1249 H   0  0  0  0  0  0  0  0  0  0  0  0
    8.9811   -8.1666   20.5043 H   0  0  0  0  0  0  0  0  0  0  0  0
    7.5874   -8.1836   21.5880 H   0  0  0  0  0  0  0  0  0  0  0  0
    6.8090   -8.5902   19.3361 H   0  0  0  0  0  0  0  0  0  0  0  0
    7.9889   -9.9086   19.0995 H   0  0  0  0  0  0  0  0  0  0  0  0
    6.6335  -10.0999   20.2139 H   0  0  0  0  0  0  0  0  0  0  0  0
    9.5152  -11.8937   22.8299 H   0  0  0  0  0  0  0  0  0  0  0  0
    7.8342  -13.9059   23.0529 H   0  0  0  0  0  0  0  0  0  0  0  0
    9.5393  -14.3642   24.6397 H   0  0  0  0  0  0  0  0  0  0  0  0
    9.5276  -12.6671   25.2816 H   0  0  0  0  0  0  0  0  0  0  0  0
    7.3809  -14.9500   25.5394 H   0  0  0  0  0  0  0  0  0  0  0  0
    7.9606  -13.7855   26.7522 H   0  0  0  0  0  0  0  0  0  0  0  0
    4.2265  -14.9222   25.8525 H   0  0  0  0  0  0  0  0  0  0  0  0
    3.0901  -14.1246   26.9701 H   0  0  0  0  0  0  0  0  0  0  0  0
    4.0322  -16.8071   28.3306 H   0  0  0  0  0  0  0  0  0  0  0  0
    3.3490  -16.9994   26.8276 H   0  0  0  0  0  0  0  0  0  0  0  0
    0.5001  -18.8738   30.2956 H   0  0  0  0  0  0  0  0  0  0  0  0
    0.4927  -16.2493   31.2320 H   0  0  0  0  0  0  0  0  0  0  0  0
   -0.0033  -15.6479   28.9836 H   0  0  0  0  0  0  0  0  0  0  0  0
    6.3243  -13.3705   24.2787 H   0  0  0  0  0  0  0  0  0  0  0  0
    7.2827  -11.9802   25.1914 H   0  0  0  0  0  0  0  0  0  0  0  0
  1  2  1  0
  2  3  1  0
  3  4  1  0
  4  5  1  0
  3  6  1  0
  6  7  2  0
  6  8  1  0
  8  9  1  0
  9 10  1  0
 10 11  1  0
 11 12  1  0
 12 13  1  0
 13 14  2  0
 13 15  1  0
 15 16  1  0
 16 17  1  0
 17 18  2  0
 18 19  1  0
 19 20  2  0
 20 21  1  0
 12 22  1  0
 22  9  1  0
 21 17  1  0
  1 23  1  0
  1 24  1  0
  1 25  1  0
  2 26  1  0
  2 27  1  0
  3 28  1  0
  4 29  1  0
  4 30  1  0
  5 31  1  0
  5 32  1  0
  5 33  1  0
  8 34  1  0
  9 35  1  0
 10 36  1  0
 10 37  1  0
 11 38  1  0
 11 39  1  0
 15 40  1  0
 15 41  1  0
 16 42  1  0
 16 43  1  0
 19 44  1  0
 20 45  1  0
 21 46  1  0
 22 47  1  0
 22 48  1  0
M  END
>  <Energy>  (1223) 
801.96324732004837

>  <compound_id>  (1223) 
44132

>  <target_id>  (1223) 
1

>  <reference_id>  (1223) 
115

>  <inspiration_ids>  (1223) 
[115, 27]

>  <energy_score>  (1223) 
775.5823201722071

>  <distance_score>  (1223) 
12.982035953637194

>  <path>  (1223) 
/opt/xchem-fragalysis-2/maxwin/BulkDock/SCRATCH/511016/C44132-P115/C44132-P115.minimised.mol

>  <scratch_subdir>  (1223) 
/opt/xchem-fragalysis-2/maxwin/BulkDock/SCRATCH/511016/C44132-P115

>  <fragmenstein_runtime>  (1223) 
30.00710892677307

>  <fragmenstein_outcome>  (1223) 
too moved

>  <fragmenstein_mode>  (1223) 
expansion

>  <fragmenstein_error>  (1223) 


$$$$
C44132-P27
     RDKit          3D

 48 49  0  0  0  0  0  0  0  0999 V2000
   13.9451   -5.0242   21.4195 C   0  0  0  0  0  0  0  0  0  0  0  0
   12.4505   -4.6714   21.3613 C   0  0  0  0  0  0  0  0  0  0  0  0
   11.5935   -5.4467   20.1853 C   0  0  0  0  0  0  0  0  0  0  0  0
   12.5366   -4.8409   18.7957 C   0  0  0  0  0  0  0  0  0  0  0  0
   13.2778   -3.4932   18.7209 C   0  0  0  0  0  0  0  0  0  0  0  0
    9.7468   -6.2842   20.2685 C   0  0  0  0  0  0  0  0  0  0  0  0
    9.8473   -7.4966   20.4311 O   0  0  0  0  0  0  0  0  0  0  0  0
    8.4774   -5.4488   20.2511 N   0  0  0  0  0  0  0  0  0  0  0  0
    7.0527   -5.8212   20.5208 C   0  0  0  0  0  0  0  0  0  0  0  0
    6.3745   -6.5925   19.5068 C   0  0  0  0  0  0  0  0  0  0  0  0
    5.0750   -5.8868   20.1548 C   0  0  0  0  0  0  0  0  0  0  0  0
    4.5373   -6.4897   21.5585 N   0  0  0  0  0  0  0  0  0  0  0  0
    3.7211   -7.5941   21.2421 C   0  0  0  0  0  0  0  0  0  0  0  0
    4.1522   -8.7442   21.1596 O   0  0  0  0  0  0  0  0  0  0  0  0
    2.2001   -7.3878   21.1038 C   0  0  0  0  0  0  0  0  0  0  0  0
    1.4115   -8.2639   22.1387 C   0  0  0  0  0  0  0  0  0  0  0  0
    0.4209   -9.3049   21.6061 C   0  0  0  0  0  0  0  0  0  0  0  0
   -0.8971   -9.3279   21.7590 N   0  0  0  0  0  0  0  0  0  0  0  0
   -1.3512  -10.3917   21.0081 C   0  0  0  0  0  0  0  0  0  0  0  0
   -0.2974  -11.1257   20.5319 C   0  0  0  0  0  0  0  0  0  0  0  0
    0.8189  -10.4221   20.9061 N   0  0  0  0  0  0  0  0  0  0  0  0
    5.5400   -5.2870   20.6574 C   0  0  0  0  0  0  0  0  0  0  0  0
   14.0723   -6.0862   21.6563 H   0  0  0  0  0  0  0  0  0  0  0  0
   14.4228   -4.4515   22.2223 H   0  0  0  0  0  0  0  0  0  0  0  0
   14.5044   -4.8213   20.5075 H   0  0  0  0  0  0  0  0  0  0  0  0
   12.1234   -4.8679   22.3844 H   0  0  0  0  0  0  0  0  0  0  0  0
   12.3563   -3.5982   21.2307 H   0  0  0  0  0  0  0  0  0  0  0  0
   12.1440   -6.3848   20.3850 H   0  0  0  0  0  0  0  0  0  0  0  0
   11.9407   -4.8014   17.8757 H   0  0  0  0  0  0  0  0  0  0  0  0
   13.3426   -5.5589   18.6854 H   0  0  0  0  0  0  0  0  0  0  0  0
   12.7593   -2.8140   18.0380 H   0  0  0  0  0  0  0  0  0  0  0  0
   13.4463   -2.9858   19.6671 H   0  0  0  0  0  0  0  0  0  0  0  0
   14.2636   -3.6497   18.2648 H   0  0  0  0  0  0  0  0  0  0  0  0
    8.7356   -4.4743   20.1833 H   0  0  0  0  0  0  0  0  0  0  0  0
    7.1777   -6.4691   21.4026 H   0  0  0  0  0  0  0  0  0  0  0  0
    6.4143   -7.6788   19.6358 H   0  0  0  0  0  0  0  0  0  0  0  0
    6.4795   -6.2797   18.4666 H   0  0  0  0  0  0  0  0  0  0  0  0
    4.2041   -5.3170   19.4796 H   0  0  0  0  0  0  0  0  0  0  0  0
    4.5264   -6.7006   19.5330 H   0  0  0  0  0  0  0  0  0  0  0  0
    1.9153   -7.6257   20.0737 H   0  0  0  0  0  0  0  0  0  0  0  0
    1.9783   -6.3295   21.2816 H   0  0  0  0  0  0  0  0  0  0  0  0
    2.1024   -8.7800   22.8171 H   0  0  0  0  0  0  0  0  0  0  0  0
    0.8287   -7.5790   22.7691 H   0  0  0  0  0  0  0  0  0  0  0  0
   -2.4079  -10.5856   20.8775 H   0  0  0  0  0  0  0  0  0  0  0  0
   -0.2419  -12.0293   19.9403 H   0  0  0  0  0  0  0  0  0  0  0  0
    1.7770  -10.6229   20.6461 H   0  0  0  0  0  0  0  0  0  0  0  0
    5.8185   -4.8352   21.7005 H   0  0  0  0  0  0  0  0  0  0  0  0
    5.2248   -4.1223   20.5169 H   0  0  0  0  0  0  0  0  0  0  0  0
  1  2  1  0
  2  3  1  0
  3  4  1  0
  4  5  1  0
  3  6  1  0
  6  7  2  0
  6  8  1  0
  8  9  1  0
  9 10  1  0
 10 11  1  0
 11 12  1  0
 12 13  1  0
 13 14  2  0
 13 15  1  0
 15 16  1  0
 16 17  1  0
 17 18  2  0
 18 19  1  0
 19 20  2  0
 20 21  1  0
 12 22  1  0
 22  9  1  0
 21 17  1  0
  1 23  1  0
  1 24  1  0
  1 25  1  0
  2 26  1  0
  2 27  1  0
  3 28  1  0
  4 29  1  0
  4 30  1  0
  5 31  1  0
  5 32  1  0
  5 33  1  0
  8 34  1  0
  9 35  1  0
 10 36  1  0
 10 37  1  0
 11 38  1  0
 11 39  1  0
 15 40  1  0
 15 41  1  0
 16 42  1  0
 16 43  1  0
 19 44  1  0
 20 45  1  0
 21 46  1  0
 22 47  1  0
 22 48  1  0
M  END
>  <Energy>  (1224) 
685.85606378915315

>  <compound_id>  (1224) 
44132

>  <target_id>  (1224) 
1

>  <reference_id>  (1224) 
27

>  <inspiration_ids>  (1224) 
[115, 27]

>  <energy_score>  (1224) 
659.4751366413149

>  <distance_score>  (1224) 
13.255105921234946

>  <path>  (1224) 
/opt/xchem-fragalysis-2/maxwin/BulkDock/SCRATCH/511016/C44132-P27/C44132-P27.minimised.mol

>  <scratch_subdir>  (1224) 
/opt/xchem-fragalysis-2/maxwin/BulkDock/SCRATCH/511016/C44132-P27

>  <fragmenstein_runtime>  (1224) 
33.80510640144348

>  <fragmenstein_outcome>  (1224) 
too moved

>  <fragmenstein_mode>  (1224) 
expansion

>  <fragmenstein_error>  (1224) 


$$$$
C44111-P115
     RDKit          3D

 48 49  0  0  0  0  0  0  0  0999 V2000
    6.5006   -5.7527   21.0396 C   0  0  0  0  0  0  0  0  0  0  0  0
    5.0318   -5.4013   20.8527 C   0  0  0  0  0  0  0  0  0  0  0  0
    4.0252   -6.4839   20.3393 C   0  0  0  0  0  0  0  0  0  0  0  0
    4.0760   -6.6519   18.8015 C   0  0  0  0  0  0  0  0  0  0  0  0
    5.4261   -6.9444   18.1773 C   0  0  0  0  0  0  0  0  0  0  0  0
    3.9959   -7.8523   21.1305 C   0  0  0  0  0  0  0  0  0  0  0  0
    5.0093   -8.2187   21.6539 O   0  0  0  0  0  0  0  0  0  0  0  0
    2.6601   -8.4443   21.1259 N   0  0  0  0  0  0  0  0  0  0  0  0
    2.1699   -9.7145   21.6768 C   0  0  0  0  0  0  0  0  0  0  0  0
    2.0694   -9.7010   23.1105 C   0  0  0  0  0  0  0  0  0  0  0  0
    0.5072   -9.8643   22.7613 C   0  0  0  0  0  0  0  0  0  0  0  0
   -0.0018  -11.4289   22.0680 N   0  0  0  0  0  0  0  0  0  0  0  0
   -0.3662  -12.2546   23.1492 C   0  0  0  0  0  0  0  0  0  0  0  0
    0.4171  -13.0037   23.7196 O   0  0  0  0  0  0  0  0  0  0  0  0
   -1.8821  -12.2484   23.5130 C   0  0  0  0  0  0  0  0  0  0  0  0
   -2.2695  -12.8623   24.9006 C   0  0  0  0  0  0  0  0  0  0  0  0
   -3.2405  -13.9652   25.0411 N   0  0  0  0  0  0  0  0  0  0  0  0
   -4.2902  -14.3007   24.2276 C   0  0  0  0  0  0  0  0  0  0  0  0
   -4.9976  -15.2800   24.8933 C   0  0  0  0  0  0  0  0  0  0  0  0
   -4.4008  -15.5883   26.0879 N   0  0  0  0  0  0  0  0  0  0  0  0
   -3.3889  -14.7470   26.1753 C   0  0  0  0  0  0  0  0  0  0  0  0
    0.5517   -9.9718   21.8747 C   0  0  0  0  0  0  0  0  0  0  0  0
    7.0784   -4.8405   21.1981 H   0  0  0  0  0  0  0  0  0  0  0  0
    6.9304   -6.2988   20.2043 H   0  0  0  0  0  0  0  0  0  0  0  0
    6.6337   -6.3653   21.9365 H   0  0  0  0  0  0  0  0  0  0  0  0
    4.6649   -5.0574   21.8294 H   0  0  0  0  0  0  0  0  0  0  0  0
    4.9604   -4.5304   20.1915 H   0  0  0  0  0  0  0  0  0  0  0  0
    3.0387   -6.0372   20.5419 H   0  0  0  0  0  0  0  0  0  0  0  0
    3.3898   -7.4586   18.5148 H   0  0  0  0  0  0  0  0  0  0  0  0
    3.6802   -5.7390   18.3381 H   0  0  0  0  0  0  0  0  0  0  0  0
    5.8970   -7.8014   18.6662 H   0  0  0  0  0  0  0  0  0  0  0  0
    5.2957   -7.1820   17.1167 H   0  0  0  0  0  0  0  0  0  0  0  0
    6.0865   -6.0820   18.2362 H   0  0  0  0  0  0  0  0  0  0  0  0
    2.0614   -7.9066   20.5086 H   0  0  0  0  0  0  0  0  0  0  0  0
    2.7239  -10.5656   21.2668 H   0  0  0  0  0  0  0  0  0  0  0  0
    2.2818   -8.7612   23.6264 H   0  0  0  0  0  0  0  0  0  0  0  0
    2.4811  -10.5810   23.6088 H   0  0  0  0  0  0  0  0  0  0  0  0
    0.3322  -10.2399   23.8523 H   0  0  0  0  0  0  0  0  0  0  0  0
   -0.3176   -9.0491   23.1514 H   0  0  0  0  0  0  0  0  0  0  0  0
   -2.2198  -11.2054   23.4861 H   0  0  0  0  0  0  0  0  0  0  0  0
   -2.3929  -12.7837   22.7056 H   0  0  0  0  0  0  0  0  0  0  0  0
   -2.7212  -12.0546   25.4935 H   0  0  0  0  0  0  0  0  0  0  0  0
   -1.3757  -13.1643   25.4459 H   0  0  0  0  0  0  0  0  0  0  0  0
   -4.4559  -13.8305   23.2688 H   0  0  0  0  0  0  0  0  0  0  0  0
   -5.8923  -15.7888   24.5566 H   0  0  0  0  0  0  0  0  0  0  0  0
   -2.7243  -14.6485   27.0244 H   0  0  0  0  0  0  0  0  0  0  0  0
   -0.2062   -9.1923   21.2724 H   0  0  0  0  0  0  0  0  0  0  0  0
    0.6066  -10.2939   20.7530 H   0  0  0  0  0  0  0  0  0  0  0  0
  1  2  1  0
  2  3  1  0
  3  4  1  0
  4  5  1  0
  3  6  1  0
  6  7  2  0
  6  8  1  0
  8  9  1  0
  9 10  1  0
 10 11  1  0
 11 12  1  0
 12 13  1  0
 13 14  2  0
 13 15  1  0
 15 16  1  0
 16 17  1  0
 17 18  1  0
 18 19  2  0
 19 20  1  0
 20 21  2  0
 12 22  1  0
 22  9  1  0
 21 17  1  0
  1 23  1  0
  1 24  1  0
  1 25  1  0
  2 26  1  0
  2 27  1  0
  3 28  1  0
  4 29  1  0
  4 30  1  0
  5 31  1  0
  5 32  1  0
  5 33  1  0
  8 34  1  0
  9 35  1  0
 10 36  1  0
 10 37  1  0
 11 38  1  0
 11 39  1  0
 15 40  1  0
 15 41  1  0
 16 42  1  0
 16 43  1  0
 18 44  1  0
 19 45  1  0
 21 46  1  0
 22 47  1  0
 22 48  1  0
M  END
>  <Energy>  (1225) 
539.78925173644154

>  <compound_id>  (1225) 
44111

>  <target_id>  (1225) 
1

>  <reference_id>  (1225) 
115

>  <inspiration_ids>  (1225) 
[115, 27]

>  <energy_score>  (1225) 
511.28415146551004

>  <distance_score>  (1225) 
13.841729930417925

>  <path>  (1225) 
/opt/xchem-fragalysis-2/maxwin/BulkDock/SCRATCH/511016/C44111-P115/C44111-P115.minimised.mol

>  <scratch_subdir>  (1225) 
/opt/xchem-fragalysis-2/maxwin/BulkDock/SCRATCH/511016/C44111-P115

>  <fragmenstein_runtime>  (1225) 
24.26019835472107

>  <fragmenstein_outcome>  (1225) 
too moved

>  <fragmenstein_mode>  (1225) 
expansion

>  <fragmenstein_error>  (1225) 


$$$$
C44111-P27
     RDKit          3D

 48 49  0  0  0  0  0  0  0  0999 V2000
   13.4031   -5.3283   22.3704 C   0  0  0  0  0  0  0  0  0  0  0  0
   12.9440   -6.2342   21.2169 C   0  0  0  0  0  0  0  0  0  0  0  0
   11.8512   -5.5474   20.2920 C   0  0  0  0  0  0  0  0  0  0  0  0
   12.7355   -4.8923   19.0612 C   0  0  0  0  0  0  0  0  0  0  0  0
   13.5793   -3.6703   19.4225 C   0  0  0  0  0  0  0  0  0  0  0  0
    9.9692   -6.1506   20.2382 C   0  0  0  0  0  0  0  0  0  0  0  0
    9.0172   -5.4642   19.9938 O   0  0  0  0  0  0  0  0  0  0  0  0
    9.9709   -7.7827   20.6970 N   0  0  0  0  0  0  0  0  0  0  0  0
    8.8604   -8.7554   20.8077 C   0  0  0  0  0  0  0  0  0  0  0  0
    8.5825   -9.1344   22.1709 C   0  0  0  0  0  0  0  0  0  0  0  0
    7.1183   -8.6171   21.7697 C   0  0  0  0  0  0  0  0  0  0  0  0
    6.2389   -9.6557   20.6556 N   0  0  0  0  0  0  0  0  0  0  0  0
    5.5474  -10.5939   21.4359 C   0  0  0  0  0  0  0  0  0  0  0  0
    6.0076  -11.6862   21.7533 O   0  0  0  0  0  0  0  0  0  0  0  0
    4.0898  -10.2170   21.7893 C   0  0  0  0  0  0  0  0  0  0  0  0
    3.5002  -10.9919   22.9963 C   0  0  0  0  0  0  0  0  0  0  0  0
    2.3347  -11.8719   22.8400 N   0  0  0  0  0  0  0  0  0  0  0  0
    1.0765  -11.7002   23.3792 C   0  0  0  0  0  0  0  0  0  0  0  0
    0.3912  -12.8677   23.1270 C   0  0  0  0  0  0  0  0  0  0  0  0
    1.2080  -13.7578   22.4788 N   0  0  0  0  0  0  0  0  0  0  0  0
    2.3645  -13.1436   22.3432 C   0  0  0  0  0  0  0  0  0  0  0  0
    7.2586   -8.4161   20.9168 C   0  0  0  0  0  0  0  0  0  0  0  0
   12.5811   -5.0895   23.0507 H   0  0  0  0  0  0  0  0  0  0  0  0
   13.8376   -4.3907   22.0190 H   0  0  0  0  0  0  0  0  0  0  0  0
   14.1709   -5.8452   22.9561 H   0  0  0  0  0  0  0  0  0  0  0  0
   13.8598   -6.4592   20.6640 H   0  0  0  0  0  0  0  0  0  0  0  0
   12.6059   -7.1912   21.6242 H   0  0  0  0  0  0  0  0  0  0  0  0
   11.7519   -4.6346   20.8643 H   0  0  0  0  0  0  0  0  0  0  0  0
   12.1608   -4.6391   18.1658 H   0  0  0  0  0  0  0  0  0  0  0  0
   13.4743   -5.6029   18.7205 H   0  0  0  0  0  0  0  0  0  0  0  0
   14.5280   -3.9779   19.8741 H   0  0  0  0  0  0  0  0  0  0  0  0
   13.8245   -3.0989   18.5213 H   0  0  0  0  0  0  0  0  0  0  0  0
   13.0752   -3.0127   20.1280 H   0  0  0  0  0  0  0  0  0  0  0  0
   10.9190   -8.0702   20.9168 H   0  0  0  0  0  0  0  0  0  0  0  0
    9.0712   -9.6102   20.1549 H   0  0  0  0  0  0  0  0  0  0  0  0
    9.0296   -8.5389   22.9698 H   0  0  0  0  0  0  0  0  0  0  0  0
    8.6193  -10.2101   22.3704 H   0  0  0  0  0  0  0  0  0  0  0  0
    6.7190   -9.2066   22.6940 H   0  0  0  0  0  0  0  0  0  0  0  0
    6.5324   -7.7479   22.4122 H   0  0  0  0  0  0  0  0  0  0  0  0
    3.4806  -10.3841   20.8940 H   0  0  0  0  0  0  0  0  0  0  0  0
    4.0719   -9.1435   22.0123 H   0  0  0  0  0  0  0  0  0  0  0  0
    3.1865  -10.2355   23.7254 H   0  0  0  0  0  0  0  0  0  0  0  0
    4.2711  -11.6035   23.4759 H   0  0  0  0  0  0  0  0  0  0  0  0
    0.7833  -10.7892   23.8806 H   0  0  0  0  0  0  0  0  0  0  0  0
   -0.6331  -13.1155   23.3766 H   0  0  0  0  0  0  0  0  0  0  0  0
    3.2573  -13.5676   21.8991 H   0  0  0  0  0  0  0  0  0  0  0  0
    6.8847   -7.2770   20.6105 H   0  0  0  0  0  0  0  0  0  0  0  0
    7.2838   -8.3904   19.7544 H   0  0  0  0  0  0  0  0  0  0  0  0
  1  2  1  0
  2  3  1  0
  3  4  1  0
  4  5  1  0
  3  6  1  0
  6  7  2  0
  6  8  1  0
  8  9  1  0
  9 10  1  0
 10 11  1  0
 11 12  1  0
 12 13  1  0
 13 14  2  0
 13 15  1  0
 15 16  1  0
 16 17  1  0
 17 18  1  0
 18 19  2  0
 19 20  1  0
 20 21  2  0
 12 22  1  0
 22  9  1  0
 21 17  1  0
  1 23  1  0
  1 24  1  0
  1 25  1  0
  2 26  1  0
  2 27  1  0
  3 28  1  0
  4 29  1  0
  4 30  1  0
  5 31  1  0
  5 32  1  0
  5 33  1  0
  8 34  1  0
  9 35  1  0
 10 36  1  0
 10 37  1  0
 11 38  1  0
 11 39  1  0
 15 40  1  0
 15 41  1  0
 16 42  1  0
 16 43  1  0
 18 44  1  0
 19 45  1  0
 21 46  1  0
 22 47  1  0
 22 48  1  0
M  END
>  <Energy>  (1226) 
619.03967942427664

>  <compound_id>  (1226) 
44111

>  <target_id>  (1226) 
1

>  <reference_id>  (1226) 
27

>  <inspiration_ids>  (1226) 
[115, 27]

>  <energy_score>  (1226) 
590.5345791533493

>  <distance_score>  (1226) 
12.534846422166462

>  <path>  (1226) 
/opt/xchem-fragalysis-2/maxwin/BulkDock/SCRATCH/511016/C44111-P27/C44111-P27.minimised.mol

>  <scratch_subdir>  (1226) 
/opt/xchem-fragalysis-2/maxwin/BulkDock/SCRATCH/511016/C44111-P27

>  <fragmenstein_runtime>  (1226) 
33.166828632354736

>  <fragmenstein_outcome>  (1226) 
too moved

>  <fragmenstein_mode>  (1226) 
expansion

>  <fragmenstein_error>  (1226) 


$$$$
C23873-P115
     RDKit          3D

 45 46  0  0  0  0  0  0  0  0999 V2000
    6.9190   -6.9242   23.5375 C   0  0  0  0  0  0  0  0  0  0  0  0
    5.8321   -7.9493   23.8502 C   0  0  0  0  0  0  0  0  0  0  0  0
    5.9463   -9.3348   23.1623 C   0  0  0  0  0  0  0  0  0  0  0  0
    5.7903   -9.2262   21.6087 C   0  0  0  0  0  0  0  0  0  0  0  0
    6.9597   -8.6227   20.8205 C   0  0  0  0  0  0  0  0  0  0  0  0
    4.9015  -10.4122   23.8140 C   0  0  0  0  0  0  0  0  0  0  0  0
    3.8654  -10.6418   23.2573 O   0  0  0  0  0  0  0  0  0  0  0  0
    5.4905  -11.0075   25.0058 N   0  0  0  0  0  0  0  0  0  0  0  0
    5.0462  -12.1499   25.8496 C   0  0  0  0  0  0  0  0  0  0  0  0
    5.3291  -11.6873   27.1835 C   0  0  0  0  0  0  0  0  0  0  0  0
    3.9904  -12.4857   27.6678 C   0  0  0  0  0  0  0  0  0  0  0  0
    3.0744  -13.8709   26.6787 N   0  0  0  0  0  0  0  0  0  0  0  0
    2.8329  -15.2913   27.7820 C   0  0  0  0  0  0  0  0  0  0  0  0
    3.7900  -16.0699   27.7120 O   0  0  0  0  0  0  0  0  0  0  0  0
    1.3856  -16.0903   28.9040 C   0  0  0  0  0  0  0  0  0  0  0  0
    1.3398  -16.8276   30.5668 C   0  0  0  0  0  0  0  0  0  0  0  0
    2.0695  -17.7130   31.3619 C   0  0  0  0  0  0  0  0  0  0  0  0
    1.4201  -18.0584   32.5278 N   0  0  0  0  0  0  0  0  0  0  0  0
    0.3896  -17.2619   32.5809 C   0  0  0  0  0  0  0  0  0  0  0  0
    0.3827  -16.4142   31.5114 N   0  0  0  0  0  0  0  0  0  0  0  0
    3.6727  -12.5370   26.7643 C   0  0  0  0  0  0  0  0  0  0  0  0
    6.8931   -6.1199   24.2806 H   0  0  0  0  0  0  0  0  0  0  0  0
    7.8986   -7.4019   23.5926 H   0  0  0  0  0  0  0  0  0  0  0  0
    6.7686   -6.4561   22.5650 H   0  0  0  0  0  0  0  0  0  0  0  0
    5.8374   -8.1144   24.9355 H   0  0  0  0  0  0  0  0  0  0  0  0
    4.8511   -7.5122   23.6261 H   0  0  0  0  0  0  0  0  0  0  0  0
    6.9506   -9.7380   23.3505 H   0  0  0  0  0  0  0  0  0  0  0  0
    4.8698   -8.6809   21.3668 H   0  0  0  0  0  0  0  0  0  0  0  0
    5.6414  -10.2452   21.2274 H   0  0  0  0  0  0  0  0  0  0  0  0
    7.9223   -8.9582   21.2169 H   0  0  0  0  0  0  0  0  0  0  0  0
    6.8952   -8.9418   19.7746 H   0  0  0  0  0  0  0  0  0  0  0  0
    6.9300   -7.5328   20.8147 H   0  0  0  0  0  0  0  0  0  0  0  0
    6.4192  -10.6251   25.1426 H   0  0  0  0  0  0  0  0  0  0  0  0
    5.5873  -13.0518   25.5498 H   0  0  0  0  0  0  0  0  0  0  0  0
    6.2781  -12.0430   27.5960 H   0  0  0  0  0  0  0  0  0  0  0  0
    5.2056  -10.6147   27.3860 H   0  0  0  0  0  0  0  0  0  0  0  0
    4.7642  -13.0879   28.2957 H   0  0  0  0  0  0  0  0  0  0  0  0
    3.4088  -11.9535   28.5409 H   0  0  0  0  0  0  0  0  0  0  0  0
    0.3522  -15.7262   28.8981 H   0  0  0  0  0  0  0  0  0  0  0  0
    1.2776  -16.9969   28.2977 H   0  0  0  0  0  0  0  0  0  0  0  0
    3.0386  -18.1517   31.1652 H   0  0  0  0  0  0  0  0  0  0  0  0
   -0.3538  -17.2228   33.3650 H   0  0  0  0  0  0  0  0  0  0  0  0
   -0.2985  -15.6816   31.3637 H   0  0  0  0  0  0  0  0  0  0  0  0
    3.2588  -12.5279   25.6775 H   0  0  0  0  0  0  0  0  0  0  0  0
    2.7912  -11.6379   26.6976 H   0  0  0  0  0  0  0  0  0  0  0  0
  1  2  1  0
  2  3  1  0
  3  4  1  0
  4  5  1  0
  3  6  1  0
  6  7  2  0
  6  8  1  0
  8  9  1  0
  9 10  1  0
 10 11  1  0
 11 12  1  0
 12 13  1  0
 13 14  2  0
 13 15  1  0
 15 16  1  0
 16 17  2  0
 17 18  1  0
 18 19  2  0
 19 20  1  0
 12 21  1  0
 21  9  1  0
 20 16  1  0
  1 22  1  0
  1 23  1  0
  1 24  1  0
  2 25  1  0
  2 26  1  0
  3 27  1  0
  4 28  1  0
  4 29  1  0
  5 30  1  0
  5 31  1  0
  5 32  1  0
  8 33  1  0
  9 34  1  0
 10 35  1  0
 10 36  1  0
 11 37  1  0
 11 38  1  0
 15 39  1  0
 15 40  1  0
 17 41  1  0
 19 42  1  0
 20 43  1  0
 21 44  1  0
 21 45  1  0
M  END
>  <Energy>  (1227) 
811.27991492268791

>  <compound_id>  (1227) 
23873

>  <target_id>  (1227) 
1

>  <reference_id>  (1227) 
115

>  <inspiration_ids>  (1227) 
[115, 27]

>  <energy_score>  (1227) 
755.1606327700417

>  <distance_score>  (1227) 
14.495127562520645

>  <path>  (1227) 
/opt/xchem-fragalysis-2/maxwin/BulkDock/SCRATCH/511016/C23873-P115/C23873-P115.minimised.mol

>  <scratch_subdir>  (1227) 
/opt/xchem-fragalysis-2/maxwin/BulkDock/SCRATCH/511016/C23873-P115

>  <fragmenstein_runtime>  (1227) 
20.78915238380432

>  <fragmenstein_outcome>  (1227) 
too moved

>  <fragmenstein_mode>  (1227) 
expansion

>  <fragmenstein_error>  (1227) 


$$$$
C23873-P27
     RDKit          3D

 45 46  0  0  0  0  0  0  0  0999 V2000
   13.2663   -5.3892   22.2921 C   0  0  0  0  0  0  0  0  0  0  0  0
   12.7965   -6.2691   21.1170 C   0  0  0  0  0  0  0  0  0  0  0  0
   11.6099   -5.5851   20.2152 C   0  0  0  0  0  0  0  0  0  0  0  0
   12.5878   -4.9055   18.9775 C   0  0  0  0  0  0  0  0  0  0  0  0
   13.4530   -3.7116   19.3898 C   0  0  0  0  0  0  0  0  0  0  0  0
    9.7654   -6.4249   20.2912 C   0  0  0  0  0  0  0  0  0  0  0  0
    9.8640   -7.6439   20.4636 O   0  0  0  0  0  0  0  0  0  0  0  0
    8.5645   -5.5641   20.2490 N   0  0  0  0  0  0  0  0  0  0  0  0
    7.0640   -5.8897   20.5107 C   0  0  0  0  0  0  0  0  0  0  0  0
    6.6806   -7.2715   20.3196 C   0  0  0  0  0  0  0  0  0  0  0  0
    6.5545   -7.3013   21.9428 C   0  0  0  0  0  0  0  0  0  0  0  0
    5.0767   -7.0959   22.5650 N   0  0  0  0  0  0  0  0  0  0  0  0
    4.4464   -8.3838   22.5730 C   0  0  0  0  0  0  0  0  0  0  0  0
    3.7646   -8.8066   21.6455 O   0  0  0  0  0  0  0  0  0  0  0  0
    4.6152   -9.1748   23.9157 C   0  0  0  0  0  0  0  0  0  0  0  0
    3.4365   -9.9971   24.5031 C   0  0  0  0  0  0  0  0  0  0  0  0
    2.2680   -9.6249   25.1534 C   0  0  0  0  0  0  0  0  0  0  0  0
    1.6987  -10.6730   25.8413 N   0  0  0  0  0  0  0  0  0  0  0  0
    2.4653  -11.7060   25.5801 C   0  0  0  0  0  0  0  0  0  0  0  0
    3.4690  -11.3717   24.7096 N   0  0  0  0  0  0  0  0  0  0  0  0
    6.6481   -6.4143   22.0429 C   0  0  0  0  0  0  0  0  0  0  0  0
   14.1102   -5.8765   22.7928 H   0  0  0  0  0  0  0  0  0  0  0  0
   13.6043   -4.4031   21.9699 H   0  0  0  0  0  0  0  0  0  0  0  0
   12.4880   -5.2483   23.0455 H   0  0  0  0  0  0  0  0  0  0  0  0
   12.4978   -7.2601   21.4796 H   0  0  0  0  0  0  0  0  0  0  0  0
   13.7149   -6.4157   20.5480 H   0  0  0  0  0  0  0  0  0  0  0  0
   11.5629   -4.6966   20.8061 H   0  0  0  0  0  0  0  0  0  0  0  0
   13.3300   -5.6197   18.6510 H   0  0  0  0  0  0  0  0  0  0  0  0
   12.0490   -4.6278   18.0627 H   0  0  0  0  0  0  0  0  0  0  0  0
   14.3993   -4.0527   19.8228 H   0  0  0  0  0  0  0  0  0  0  0  0
   13.7042   -3.1058   18.5132 H   0  0  0  0  0  0  0  0  0  0  0  0
   12.9643   -3.0784   20.1270 H   0  0  0  0  0  0  0  0  0  0  0  0
    8.8596   -4.5939   20.1751 H   0  0  0  0  0  0  0  0  0  0  0  0
    6.3888   -5.1447   20.0893 H   0  0  0  0  0  0  0  0  0  0  0  0
    7.4218   -7.9963   19.9890 H   0  0  0  0  0  0  0  0  0  0  0  0
    5.7118   -7.4230   19.8309 H   0  0  0  0  0  0  0  0  0  0  0  0
    7.3668   -7.9120   22.6628 H   0  0  0  0  0  0  0  0  0  0  0  0
    6.3633   -8.4316   21.7571 H   0  0  0  0  0  0  0  0  0  0  0  0
    4.9190   -8.4600   24.6913 H   0  0  0  0  0  0  0  0  0  0  0  0
    5.4623   -9.8555   23.7622 H   0  0  0  0  0  0  0  0  0  0  0  0
    1.8632   -8.6242   25.2397 H   0  0  0  0  0  0  0  0  0  0  0  0
    2.3336  -12.7081   25.9632 H   0  0  0  0  0  0  0  0  0  0  0  0
    4.1796  -12.0065   24.3738 H   0  0  0  0  0  0  0  0  0  0  0  0
    6.1517   -5.3642   22.2078 H   0  0  0  0  0  0  0  0  0  0  0  0
    7.3319   -6.0109   22.9588 H   0  0  0  0  0  0  0  0  0  0  0  0
  1  2  1  0
  2  3  1  0
  3  4  1  0
  4  5  1  0
  3  6  1  0
  6  7  2  0
  6  8  1  0
  8  9  1  0
  9 10  1  0
 10 11  1  0
 11 12  1  0
 12 13  1  0
 13 14  2  0
 13 15  1  0
 15 16  1  0
 16 17  2  0
 17 18  1  0
 18 19  2  0
 19 20  1  0
 12 21  1  0
 21  9  1  0
 20 16  1  0
  1 22  1  0
  1 23  1  0
  1 24  1  0
  2 25  1  0
  2 26  1  0
  3 27  1  0
  4 28  1  0
  4 29  1  0
  5 30  1  0
  5 31  1  0
  5 32  1  0
  8 33  1  0
  9 34  1  0
 10 35  1  0
 10 36  1  0
 11 37  1  0
 11 38  1  0
 15 39  1  0
 15 40  1  0
 17 41  1  0
 19 42  1  0
 20 43  1  0
 21 44  1  0
 21 45  1  0
M  END
>  <Energy>  (1228) 
676.52017333936851

>  <compound_id>  (1228) 
23873

>  <target_id>  (1228) 
1

>  <reference_id>  (1228) 
27

>  <inspiration_ids>  (1228) 
[115, 27]

>  <energy_score>  (1228) 
620.400891186726

>  <distance_score>  (1228) 
13.269609193390991

>  <path>  (1228) 
/opt/xchem-fragalysis-2/maxwin/BulkDock/SCRATCH/511016/C23873-P27/C23873-P27.minimised.mol

>  <scratch_subdir>  (1228) 
/opt/xchem-fragalysis-2/maxwin/BulkDock/SCRATCH/511016/C23873-P27

>  <fragmenstein_runtime>  (1228) 
29.02068257331848

>  <fragmenstein_outcome>  (1228) 
too moved

>  <fragmenstein_mode>  (1228) 
expansion

>  <fragmenstein_error>  (1228) 


$$$$
C44110-P115
     RDKit          3D

 51 52  0  0  0  0  0  0  0  0999 V2000
   14.5126   -5.8087   24.4704 C   0  0  0  0  0  0  0  0  0  0  0  0
   13.8345   -7.1817   24.4450 C   0  0  0  0  0  0  0  0  0  0  0  0
   12.6723   -7.2692   23.4654 C   0  0  0  0  0  0  0  0  0  0  0  0
   13.1635   -6.9537   21.9927 C   0  0  0  0  0  0  0  0  0  0  0  0
   13.3093   -5.4855   21.5741 C   0  0  0  0  0  0  0  0  0  0  0  0
   11.8896   -8.6694   23.4292 C   0  0  0  0  0  0  0  0  0  0  0  0
   12.3540   -9.4918   22.6855 O   0  0  0  0  0  0  0  0  0  0  0  0
   10.6654   -8.6966   24.2380 N   0  0  0  0  0  0  0  0  0  0  0  0
    9.5752   -9.6962   24.3119 C   0  0  0  0  0  0  0  0  0  0  0  0
    9.9570  -11.0624   23.7524 C   0  0  0  0  0  0  0  0  0  0  0  0
    8.6459  -11.8439   23.8683 C   0  0  0  0  0  0  0  0  0  0  0  0
    7.8443  -11.2102   24.8987 N   0  0  0  0  0  0  0  0  0  0  0  0
    6.5232  -11.6021   25.1551 C   0  0  0  0  0  0  0  0  0  0  0  0
    5.6563  -11.0028   24.5066 O   0  0  0  0  0  0  0  0  0  0  0  0
    6.0990  -12.8381   26.1218 C   0  0  0  0  0  0  0  0  0  0  0  0
    4.7829  -14.1107   25.6818 C   0  0  0  0  0  0  0  0  0  0  0  0
    4.0246  -14.8968   26.8397 C   0  0  0  0  0  0  0  0  0  0  0  0
    3.4497  -16.3652   27.4672 N   0  0  0  0  0  0  0  0  0  0  0  0
    2.2774  -15.8960   27.9964 C   0  0  0  0  0  0  0  0  0  0  0  0
    1.3934  -16.7670   28.3731 C   0  0  0  0  0  0  0  0  0  0  0  0
    1.5207  -17.5879   27.3558 N   0  0  0  0  0  0  0  0  0  0  0  0
    2.7988  -17.4602   26.8895 C   0  0  0  0  0  0  0  0  0  0  0  0
    8.6804  -10.1470   25.5498 C   0  0  0  0  0  0  0  0  0  0  0  0
   13.7818   -4.9950   24.4937 H   0  0  0  0  0  0  0  0  0  0  0  0
   15.1324   -5.7264   25.3700 H   0  0  0  0  0  0  0  0  0  0  0  0
   15.1834   -5.6794   23.6185 H   0  0  0  0  0  0  0  0  0  0  0  0
   13.4568   -7.4046   25.4508 H   0  0  0  0  0  0  0  0  0  0  0  0
   14.5802   -7.9552   24.2257 H   0  0  0  0  0  0  0  0  0  0  0  0
   11.9633   -6.5017   23.7747 H   0  0  0  0  0  0  0  0  0  0  0  0
   14.1069   -7.4794   21.7971 H   0  0  0  0  0  0  0  0  0  0  0  0
   12.4393   -7.4009   21.3103 H   0  0  0  0  0  0  0  0  0  0  0  0
   13.0835   -5.3715   20.5089 H   0  0  0  0  0  0  0  0  0  0  0  0
   12.6463   -4.8263   22.1390 H   0  0  0  0  0  0  0  0  0  0  0  0
   14.3351   -5.1356   21.7148 H   0  0  0  0  0  0  0  0  0  0  0  0
   10.5425   -7.7954   24.6829 H   0  0  0  0  0  0  0  0  0  0  0  0
    8.8565   -9.2583   23.6004 H   0  0  0  0  0  0  0  0  0  0  0  0
   10.3032  -11.0368   22.7152 H   0  0  0  0  0  0  0  0  0  0  0  0
   10.7408  -11.5239   24.3647 H   0  0  0  0  0  0  0  0  0  0  0  0
    8.8267  -12.8898   24.1237 H   0  0  0  0  0  0  0  0  0  0  0  0
    8.0931  -11.7454   22.9311 H   0  0  0  0  0  0  0  0  0  0  0  0
    5.8236  -12.4052   27.0917 H   0  0  0  0  0  0  0  0  0  0  0  0
    7.0504  -13.3507   26.3175 H   0  0  0  0  0  0  0  0  0  0  0  0
    5.2276  -14.8732   25.0464 H   0  0  0  0  0  0  0  0  0  0  0  0
    3.9758  -13.7985   25.0097 H   0  0  0  0  0  0  0  0  0  0  0  0
    4.4871  -14.5846   27.7258 H   0  0  0  0  0  0  0  0  0  0  0  0
    4.2357  -15.6481   26.1528 H   0  0  0  0  0  0  0  0  0  0  0  0
    2.4267  -14.8799   28.0306 H   0  0  0  0  0  0  0  0  0  0  0  0
    0.7005  -16.4906   29.1186 H   0  0  0  0  0  0  0  0  0  0  0  0
    3.1577  -17.9972   26.0183 H   0  0  0  0  0  0  0  0  0  0  0  0
    8.0434   -9.3484   25.9364 H   0  0  0  0  0  0  0  0  0  0  0  0
    9.2773  -10.5970   26.3487 H   0  0  0  0  0  0  0  0  0  0  0  0
  1  2  1  0
  2  3  1  0
  3  4  1  0
  4  5  1  0
  3  6  1  0
  6  7  2  0
  6  8  1  0
  8  9  1  0
  9 10  1  0
 10 11  1  0
 11 12  1  0
 12 13  1  0
 13 14  2  0
 13 15  1  0
 15 16  1  0
 16 17  1  0
 17 18  1  0
 18 19  1  0
 19 20  2  0
 20 21  1  0
 21 22  2  0
 12 23  1  0
 23  9  1  0
 22 18  1  0
  1 24  1  0
  1 25  1  0
  1 26  1  0
  2 27  1  0
  2 28  1  0
  3 29  1  0
  4 30  1  0
  4 31  1  0
  5 32  1  0
  5 33  1  0
  5 34  1  0
  8 35  1  0
  9 36  1  0
 10 37  1  0
 10 38  1  0
 11 39  1  0
 11 40  1  0
 15 41  1  0
 15 42  1  0
 16 43  1  0
 16 44  1  0
 17 45  1  0
 17 46  1  0
 19 47  1  0
 20 48  1  0
 22 49  1  0
 23 50  1  0
 23 51  1  0
M  END
>  <Energy>  (1229) 
275.12283786339964

>  <compound_id>  (1229) 
44110

>  <target_id>  (1229) 
1

>  <reference_id>  (1229) 
115

>  <inspiration_ids>  (1229) 
[115, 27]

>  <energy_score>  (1229) 
258.2474105153434

>  <distance_score>  (1229) 
12.085719876427826

>  <path>  (1229) 
/opt/xchem-fragalysis-2/maxwin/BulkDock/SCRATCH/511016/C44110-P115/C44110-P115.minimised.mol

>  <scratch_subdir>  (1229) 
/opt/xchem-fragalysis-2/maxwin/BulkDock/SCRATCH/511016/C44110-P115

>  <fragmenstein_runtime>  (1229) 
31.17727279663086

>  <fragmenstein_outcome>  (1229) 
too moved

>  <fragmenstein_mode>  (1229) 
expansion

>  <fragmenstein_error>  (1229) 


$$$$
C44110-P27
     RDKit          3D

 51 52  0  0  0  0  0  0  0  0999 V2000
   12.1579   -6.7525   24.7422 C   0  0  0  0  0  0  0  0  0  0  0  0
   11.8695   -8.2625   24.7675 C   0  0  0  0  0  0  0  0  0  0  0  0
   11.1368   -8.8367   23.5458 C   0  0  0  0  0  0  0  0  0  0  0  0
   12.1096   -9.1796   22.3761 C   0  0  0  0  0  0  0  0  0  0  0  0
   13.1540   -8.1394   21.9789 C   0  0  0  0  0  0  0  0  0  0  0  0
   10.1362  -10.0443   23.8145 C   0  0  0  0  0  0  0  0  0  0  0  0
   10.3808  -11.1013   23.3070 O   0  0  0  0  0  0  0  0  0  0  0  0
    8.9922   -9.6133   24.5918 N   0  0  0  0  0  0  0  0  0  0  0  0
    7.7568  -10.2884   24.9099 C   0  0  0  0  0  0  0  0  0  0  0  0
    7.0925  -10.1645   26.1621 C   0  0  0  0  0  0  0  0  0  0  0  0
    6.8238  -11.7951   25.7099 C   0  0  0  0  0  0  0  0  0  0  0  0
    6.8804  -12.7076   26.8406 N   0  0  0  0  0  0  0  0  0  0  0  0
    5.5095  -12.7805   27.4222 C   0  0  0  0  0  0  0  0  0  0  0  0
    5.2117  -11.9810   28.3208 O   0  0  0  0  0  0  0  0  0  0  0  0
    4.1562  -14.1373   27.0288 C   0  0  0  0  0  0  0  0  0  0  0  0
    3.5215  -15.7985   27.6666 C   0  0  0  0  0  0  0  0  0  0  0  0
    1.9330  -16.1841   28.0054 C   0  0  0  0  0  0  0  0  0  0  0  0
    1.2028  -16.4611   29.2784 N   0  0  0  0  0  0  0  0  0  0  0  0
    1.7519  -17.1699   30.3215 C   0  0  0  0  0  0  0  0  0  0  0  0
    0.6266  -17.7655   30.6247 C   0  0  0  0  0  0  0  0  0  0  0  0
    0.1089  -16.6328   31.0661 N   0  0  0  0  0  0  0  0  0  0  0  0
    0.2108  -15.8986   30.0272 C   0  0  0  0  0  0  0  0  0  0  0  0
    7.7282  -11.8105   25.4278 C   0  0  0  0  0  0  0  0  0  0  0  0
   12.4712   -6.3752   23.7702 H   0  0  0  0  0  0  0  0  0  0  0  0
   11.2768   -6.1942   25.0702 H   0  0  0  0  0  0  0  0  0  0  0  0
   12.9523   -6.5248   25.4612 H   0  0  0  0  0  0  0  0  0  0  0  0
   11.2977   -8.4752   25.6791 H   0  0  0  0  0  0  0  0  0  0  0  0
   12.8188   -8.7984   24.8941 H   0  0  0  0  0  0  0  0  0  0  0  0
   10.4670   -8.0821   23.1522 H   0  0  0  0  0  0  0  0  0  0  0  0
   12.6525  -10.0964   22.6424 H   0  0  0  0  0  0  0  0  0  0  0  0
   11.5076   -9.4382   21.4972 H   0  0  0  0  0  0  0  0  0  0  0  0
   13.8187   -8.5587   21.2174 H   0  0  0  0  0  0  0  0  0  0  0  0
   12.7049   -7.2318   21.5777 H   0  0  0  0  0  0  0  0  0  0  0  0
   13.8031   -7.8811   22.8197 H   0  0  0  0  0  0  0  0  0  0  0  0
    9.0824   -8.6225   24.7922 H   0  0  0  0  0  0  0  0  0  0  0  0
    7.0939  -10.1540   24.0422 H   0  0  0  0  0  0  0  0  0  0  0  0
    7.6996  -10.0708   27.0703 H   0  0  0  0  0  0  0  0  0  0  0  0
    6.1957   -9.5372   26.1691 H   0  0  0  0  0  0  0  0  0  0  0  0
    6.1248  -12.0949   24.7951 H   0  0  0  0  0  0  0  0  0  0  0  0
    5.7733  -11.4410   25.9395 H   0  0  0  0  0  0  0  0  0  0  0  0
    4.5873  -14.3155   27.9855 H   0  0  0  0  0  0  0  0  0  0  0  0
    4.4547  -14.4435   26.0145 H   0  0  0  0  0  0  0  0  0  0  0  0
    4.1238  -16.3422   28.3626 H   0  0  0  0  0  0  0  0  0  0  0  0
    3.6642  -16.4502   26.8239 H   0  0  0  0  0  0  0  0  0  0  0  0
    1.7012  -17.0642   27.4157 H   0  0  0  0  0  0  0  0  0  0  0  0
    1.5678  -15.2606   27.6307 H   0  0  0  0  0  0  0  0  0  0  0  0
    2.7841  -17.4651   30.4018 H   0  0  0  0  0  0  0  0  0  0  0  0
    0.3117  -18.7833   30.7896 H   0  0  0  0  0  0  0  0  0  0  0  0
   -0.5587  -15.1500   29.8712 H   0  0  0  0  0  0  0  0  0  0  0  0
    8.0977  -12.5708   24.6034 H   0  0  0  0  0  0  0  0  0  0  0  0
    8.7819  -11.8674   25.9340 H   0  0  0  0  0  0  0  0  0  0  0  0
  1  2  1  0
  2  3  1  0
  3  4  1  0
  4  5  1  0
  3  6  1  0
  6  7  2  0
  6  8  1  0
  8  9  1  0
  9 10  1  0
 10 11  1  0
 11 12  1  0
 12 13  1  0
 13 14  2  0
 13 15  1  0
 15 16  1  0
 16 17  1  0
 17 18  1  0
 18 19  1  0
 19 20  2  0
 20 21  1  0
 21 22  2  0
 12 23  1  0
 23  9  1  0
 22 18  1  0
  1 24  1  0
  1 25  1  0
  1 26  1  0
  2 27  1  0
  2 28  1  0
  3 29  1  0
  4 30  1  0
  4 31  1  0
  5 32  1  0
  5 33  1  0
  5 34  1  0
  8 35  1  0
  9 36  1  0
 10 37  1  0
 10 38  1  0
 11 39  1  0
 11 40  1  0
 15 41  1  0
 15 42  1  0
 16 43  1  0
 16 44  1  0
 17 45  1  0
 17 46  1  0
 19 47  1  0
 20 48  1  0
 22 49  1  0
 23 50  1  0
 23 51  1  0
M  END
>  <Energy>  (1230) 
819.01854932931201

>  <compound_id>  (1230) 
44110

>  <target_id>  (1230) 
1

>  <reference_id>  (1230) 
27

>  <inspiration_ids>  (1230) 
[115, 27]

>  <energy_score>  (1230) 
802.1431219812454

>  <distance_score>  (1230) 
12.660092775034867

>  <path>  (1230) 
/opt/xchem-fragalysis-2/maxwin/BulkDock/SCRATCH/511016/C44110-P27/C44110-P27.minimised.mol

>  <scratch_subdir>  (1230) 
/opt/xchem-fragalysis-2/maxwin/BulkDock/SCRATCH/511016/C44110-P27

>  <fragmenstein_runtime>  (1230) 
40.25562286376953

>  <fragmenstein_outcome>  (1230) 
too moved

>  <fragmenstein_mode>  (1230) 
expansion

>  <fragmenstein_error>  (1230) 


$$$$
C44124-P115
     RDKit          3D

 51 52  0  0  0  0  0  0  0  0999 V2000
    5.3466   -2.9662   22.0790 C   0  0  0  0  0  0  0  0  0  0  0  0
    5.6798   -3.9951   23.1596 C   0  0  0  0  0  0  0  0  0  0  0  0
    4.9769   -5.3713   22.9559 C   0  0  0  0  0  0  0  0  0  0  0  0
    5.9243   -6.3466   22.1980 C   0  0  0  0  0  0  0  0  0  0  0  0
    6.3902   -5.8959   20.8146 C   0  0  0  0  0  0  0  0  0  0  0  0
    4.5115   -5.9903   24.3601 C   0  0  0  0  0  0  0  0  0  0  0  0
    5.3192   -6.5651   25.0341 O   0  0  0  0  0  0  0  0  0  0  0  0
    3.1243   -5.6479   24.6308 N   0  0  0  0  0  0  0  0  0  0  0  0
    2.3084   -5.8105   25.8451 C   0  0  0  0  0  0  0  0  0  0  0  0
    2.9321   -5.2611   27.0088 C   0  0  0  0  0  0  0  0  0  0  0  0
    2.8735   -6.8293   27.3333 C   0  0  0  0  0  0  0  0  0  0  0  0
    1.1684   -7.6526   27.4627 N   0  0  0  0  0  0  0  0  0  0  0  0
    0.6645   -8.3648   28.8964 C   0  0  0  0  0  0  0  0  0  0  0  0
    1.1986   -8.5753   29.8897 O   0  0  0  0  0  0  0  0  0  0  0  0
   -0.8500   -8.8345   28.6851 C   0  0  0  0  0  0  0  0  0  0  0  0
   -1.7088   -7.6414   28.2769 C   0  0  0  0  0  0  0  0  0  0  0  0
   -1.4251   -9.5172   30.0114 C   0  0  0  0  0  0  0  0  0  0  0  0
   -2.5841  -10.4372   30.0419 N   0  0  0  0  0  0  0  0  0  0  0  0
   -2.8175  -11.3648   31.0470 C   0  0  0  0  0  0  0  0  0  0  0  0
   -3.9816  -12.0178   30.7146 C   0  0  0  0  0  0  0  0  0  0  0  0
   -4.5062  -11.4840   29.5715 N   0  0  0  0  0  0  0  0  0  0  0  0
   -3.6606  -10.5409   29.2026 C   0  0  0  0  0  0  0  0  0  0  0  0
    2.3868   -7.1872   26.9213 C   0  0  0  0  0  0  0  0  0  0  0  0
    4.3006   -2.6549   22.1754 H   0  0  0  0  0  0  0  0  0  0  0  0
    5.9660   -2.0726   22.1836 H   0  0  0  0  0  0  0  0  0  0  0  0
    5.4676   -3.3676   21.0747 H   0  0  0  0  0  0  0  0  0  0  0  0
    6.7650   -4.1333   23.2124 H   0  0  0  0  0  0  0  0  0  0  0  0
    5.3817   -3.5707   24.1263 H   0  0  0  0  0  0  0  0  0  0  0  0
    4.0801   -5.2375   22.3377 H   0  0  0  0  0  0  0  0  0  0  0  0
    5.4004   -7.3049   22.0878 H   0  0  0  0  0  0  0  0  0  0  0  0
    6.8040   -6.5594   22.8172 H   0  0  0  0  0  0  0  0  0  0  0  0
    6.9169   -6.7165   20.3178 H   0  0  0  0  0  0  0  0  0  0  0  0
    5.5428   -5.6087   20.1858 H   0  0  0  0  0  0  0  0  0  0  0  0
    7.0843   -5.0591   20.8936 H   0  0  0  0  0  0  0  0  0  0  0  0
    2.7665   -5.0857   23.8657 H   0  0  0  0  0  0  0  0  0  0  0  0
    1.2777   -5.4797   25.6686 H   0  0  0  0  0  0  0  0  0  0  0  0
    2.2854   -4.6688   27.6624 H   0  0  0  0  0  0  0  0  0  0  0  0
    3.9553   -4.8880   26.9346 H   0  0  0  0  0  0  0  0  0  0  0  0
    2.8899   -6.5914   28.5548 H   0  0  0  0  0  0  0  0  0  0  0  0
    3.9866   -7.3700   27.6328 H   0  0  0  0  0  0  0  0  0  0  0  0
   -0.8380   -9.5831   27.8933 H   0  0  0  0  0  0  0  0  0  0  0  0
   -1.4131   -7.2572   27.2954 H   0  0  0  0  0  0  0  0  0  0  0  0
   -1.6041   -6.8208   28.9951 H   0  0  0  0  0  0  0  0  0  0  0  0
   -2.7675   -7.9031   28.2153 H   0  0  0  0  0  0  0  0  0  0  0  0
   -0.6149  -10.1038   30.4630 H   0  0  0  0  0  0  0  0  0  0  0  0
   -1.6771   -8.7287   30.7329 H   0  0  0  0  0  0  0  0  0  0  0  0
   -2.1278  -11.4942   31.8694 H   0  0  0  0  0  0  0  0  0  0  0  0
   -4.4666  -12.8291   31.2404 H   0  0  0  0  0  0  0  0  0  0  0  0
   -3.7860   -9.9175   28.3291 H   0  0  0  0  0  0  0  0  0  0  0  0
    2.9946   -8.3003   26.4884 H   0  0  0  0  0  0  0  0  0  0  0  0
    1.8546   -7.5951   25.9150 H   0  0  0  0  0  0  0  0  0  0  0  0
  1  2  1  0
  2  3  1  0
  3  4  1  0
  4  5  1  0
  3  6  1  0
  6  7  2  0
  6  8  1  0
  8  9  1  0
  9 10  1  0
 10 11  1  0
 11 12  1  0
 12 13  1  0
 13 14  2  0
 13 15  1  0
 15 16  1  0
 15 17  1  0
 17 18  1  0
 18 19  1  0
 19 20  2  0
 20 21  1  0
 21 22  2  0
 12 23  1  0
 23  9  1  0
 22 18  1  0
  1 24  1  0
  1 25  1  0
  1 26  1  0
  2 27  1  0
  2 28  1  0
  3 29  1  0
  4 30  1  0
  4 31  1  0
  5 32  1  0
  5 33  1  0
  5 34  1  0
  8 35  1  0
  9 36  1  0
 10 37  1  0
 10 38  1  0
 11 39  1  0
 11 40  1  0
 15 41  1  0
 16 42  1  0
 16 43  1  0
 16 44  1  0
 17 45  1  0
 17 46  1  0
 19 47  1  0
 20 48  1  0
 22 49  1  0
 23 50  1  0
 23 51  1  0
M  END
>  <Energy>  (1231) 
717.44950181162255

>  <compound_id>  (1231) 
44124

>  <target_id>  (1231) 
1

>  <reference_id>  (1231) 
115

>  <inspiration_ids>  (1231) 
[115, 27]

>  <energy_score>  (1231) 
696.8483605890035

>  <distance_score>  (1231) 
14.458982087584078

>  <path>  (1231) 
/opt/xchem-fragalysis-2/maxwin/BulkDock/SCRATCH/511016/C44124-P115/C44124-P115.minimised.mol

>  <scratch_subdir>  (1231) 
/opt/xchem-fragalysis-2/maxwin/BulkDock/SCRATCH/511016/C44124-P115

>  <fragmenstein_runtime>  (1231) 
47.74268412590027

>  <fragmenstein_outcome>  (1231) 
too moved

>  <fragmenstein_mode>  (1231) 
expansion

>  <fragmenstein_error>  (1231) 


$$$$
C44124-P27
     RDKit          3D

 51 52  0  0  0  0  0  0  0  0999 V2000
    9.8380   -8.5027   24.1021 C   0  0  0  0  0  0  0  0  0  0  0  0
    9.2919   -9.8960   24.3176 C   0  0  0  0  0  0  0  0  0  0  0  0
    7.7350  -10.0342   24.3236 C   0  0  0  0  0  0  0  0  0  0  0  0
    7.0878   -9.4167   23.0454 C   0  0  0  0  0  0  0  0  0  0  0  0
    7.7069   -9.7689   21.6894 C   0  0  0  0  0  0  0  0  0  0  0  0
    7.3713  -11.5546   24.6028 C   0  0  0  0  0  0  0  0  0  0  0  0
    8.1289  -12.3588   24.1308 O   0  0  0  0  0  0  0  0  0  0  0  0
    6.2059  -11.7384   25.4717 N   0  0  0  0  0  0  0  0  0  0  0  0
    5.5254  -13.0075   25.9707 C   0  0  0  0  0  0  0  0  0  0  0  0
    5.9821  -12.9402   27.2985 C   0  0  0  0  0  0  0  0  0  0  0  0
    4.4289  -14.1988   27.5306 C   0  0  0  0  0  0  0  0  0  0  0  0
    3.5309  -15.2342   27.1324 N   0  0  0  0  0  0  0  0  0  0  0  0
    2.0702  -16.0411   28.0413 C   0  0  0  0  0  0  0  0  0  0  0  0
    1.6751  -15.6312   29.0685 O   0  0  0  0  0  0  0  0  0  0  0  0
    0.8557  -17.4739   27.4295 C   0  0  0  0  0  0  0  0  0  0  0  0
    2.4716  -17.8281   26.6282 C   0  0  0  0  0  0  0  0  0  0  0  0
   -1.2811  -17.6930   27.2043 C   0  0  0  0  0  0  0  0  0  0  0  0
   -3.2233  -17.4069   27.6243 N   0  0  0  0  0  0  0  0  0  0  0  0
   -4.9587  -18.2391   27.7593 C   0  0  0  0  0  0  0  0  0  0  0  0
   -5.8405  -17.6856   28.9299 C   0  0  0  0  0  0  0  0  0  0  0  0
   -5.0242  -16.4901   29.4999 N   0  0  0  0  0  0  0  0  0  0  0  0
   -3.7398  -16.2549   28.7239 C   0  0  0  0  0  0  0  0  0  0  0  0
    4.4330  -13.6631   27.4812 C   0  0  0  0  0  0  0  0  0  0  0  0
    9.2742   -7.7713   24.6870 H   0  0  0  0  0  0  0  0  0  0  0  0
   10.8894   -8.4539   24.4028 H   0  0  0  0  0  0  0  0  0  0  0  0
    9.7924   -8.2730   23.0424 H   0  0  0  0  0  0  0  0  0  0  0  0
    9.7339  -10.5626   23.5665 H   0  0  0  0  0  0  0  0  0  0  0  0
    9.6583  -10.2603   25.2869 H   0  0  0  0  0  0  0  0  0  0  0  0
    7.3629   -9.4627   25.1847 H   0  0  0  0  0  0  0  0  0  0  0  0
    7.0996   -8.3242   23.1452 H   0  0  0  0  0  0  0  0  0  0  0  0
    6.0315   -9.7125   23.0238 H   0  0  0  0  0  0  0  0  0  0  0  0
    8.7287   -9.4031   21.5805 H   0  0  0  0  0  0  0  0  0  0  0  0
    7.7145  -10.8536   21.5437 H   0  0  0  0  0  0  0  0  0  0  0  0
    7.1117   -9.3255   20.8843 H   0  0  0  0  0  0  0  0  0  0  0  0
    5.8502  -10.8318   25.7439 H   0  0  0  0  0  0  0  0  0  0  0  0
    6.0930  -13.8162   25.4793 H   0  0  0  0  0  0  0  0  0  0  0  0
    5.9001  -11.9508   27.8002 H   0  0  0  0  0  0  0  0  0  0  0  0
    7.0522  -13.2250   27.2262 H   0  0  0  0  0  0  0  0  0  0  0  0
    4.5214  -14.7338   26.2068 H   0  0  0  0  0  0  0  0  0  0  0  0
    4.6124  -14.9313   28.5385 H   0  0  0  0  0  0  0  0  0  0  0  0
    0.7810  -17.7806   28.4407 H   0  0  0  0  0  0  0  0  0  0  0  0
    3.0680  -18.6882   26.8846 H   0  0  0  0  0  0  0  0  0  0  0  0
    2.6074  -17.8792   25.5348 H   0  0  0  0  0  0  0  0  0  0  0  0
    3.2119  -17.1668   26.9781 H   0  0  0  0  0  0  0  0  0  0  0  0
   -1.4438  -16.6578   27.4972 H   0  0  0  0  0  0  0  0  0  0  0  0
   -1.5348  -17.9797   26.1856 H   0  0  0  0  0  0  0  0  0  0  0  0
   -5.2743  -19.1033   27.1614 H   0  0  0  0  0  0  0  0  0  0  0  0
   -6.8088  -17.9582   29.2827 H   0  0  0  0  0  0  0  0  0  0  0  0
   -3.0439  -15.4113   28.8799 H   0  0  0  0  0  0  0  0  0  0  0  0
    4.5957  -12.7980   28.5790 H   0  0  0  0  0  0  0  0  0  0  0  0
    2.9966  -13.4711   27.2999 H   0  0  0  0  0  0  0  0  0  0  0  0
  1  2  1  0
  2  3  1  0
  3  4  1  0
  4  5  1  0
  3  6  1  0
  6  7  2  0
  6  8  1  0
  8  9  1  0
  9 10  1  0
 10 11  1  0
 11 12  1  0
 12 13  1  0
 13 14  2  0
 13 15  1  0
 15 16  1  0
 15 17  1  0
 17 18  1  0
 18 19  1  0
 19 20  2  0
 20 21  1  0
 21 22  2  0
 12 23  1  0
 23  9  1  0
 22 18  1  0
  1 24  1  0
  1 25  1  0
  1 26  1  0
  2 27  1  0
  2 28  1  0
  3 29  1  0
  4 30  1  0
  4 31  1  0
  5 32  1  0
  5 33  1  0
  5 34  1  0
  8 35  1  0
  9 36  1  0
 10 37  1  0
 10 38  1  0
 11 39  1  0
 11 40  1  0
 15 41  1  0
 16 42  1  0
 16 43  1  0
 16 44  1  0
 17 45  1  0
 17 46  1  0
 19 47  1  0
 20 48  1  0
 22 49  1  0
 23 50  1  0
 23 51  1  0
M  END
>  <Energy>  (1232) 
1766.8697105370502

>  <compound_id>  (1232) 
44124

>  <target_id>  (1232) 
1

>  <reference_id>  (1232) 
27

>  <inspiration_ids>  (1232) 
[115, 27]

>  <energy_score>  (1232) 
1746.2685693144153

>  <distance_score>  (1232) 
13.722818371044617

>  <path>  (1232) 
/opt/xchem-fragalysis-2/maxwin/BulkDock/SCRATCH/511016/C44124-P27/C44124-P27.minimised.mol

>  <scratch_subdir>  (1232) 
/opt/xchem-fragalysis-2/maxwin/BulkDock/SCRATCH/511016/C44124-P27

>  <fragmenstein_runtime>  (1232) 
40.838828802108765

>  <fragmenstein_outcome>  (1232) 
too moved

>  <fragmenstein_mode>  (1232) 
expansion

>  <fragmenstein_error>  (1232) 


$$$$
C44104-P115
     RDKit          3D

 48 50  0  0  0  0  0  0  0  0999 V2000
   14.3806   -5.5131   21.3882 C   0  0  0  0  0  0  0  0  0  0  0  0
   12.9970   -6.1616   21.3165 C   0  0  0  0  0  0  0  0  0  0  0  0
   11.9229   -5.4770   20.3583 C   0  0  0  0  0  0  0  0  0  0  0  0
   12.7502   -4.8681   19.0632 C   0  0  0  0  0  0  0  0  0  0  0  0
   13.5081   -3.5517   19.2555 C   0  0  0  0  0  0  0  0  0  0  0  0
   10.0762   -6.1526   20.3175 C   0  0  0  0  0  0  0  0  0  0  0  0
    9.0494   -5.5837   20.0543 O   0  0  0  0  0  0  0  0  0  0  0  0
   10.2709   -7.7789   20.8784 N   0  0  0  0  0  0  0  0  0  0  0  0
    9.2544   -8.8021   21.2592 C   0  0  0  0  0  0  0  0  0  0  0  0
   10.0507  -10.0130   21.7597 C   0  0  0  0  0  0  0  0  0  0  0  0
   10.2423  -10.8603   20.5050 C   0  0  0  0  0  0  0  0  0  0  0  0
    9.0104  -10.6382   19.7317 N   0  0  0  0  0  0  0  0  0  0  0  0
    8.4051  -11.7718   19.2041 C   0  0  0  0  0  0  0  0  0  0  0  0
    7.0535  -11.8662   18.8437 C   0  0  0  0  0  0  0  0  0  0  0  0
    6.5779  -13.1095   18.4112 C   0  0  0  0  0  0  0  0  0  0  0  0
    5.2093  -13.3476   18.0322 N   0  0  0  0  0  0  0  0  0  0  0  0
    4.2040  -12.4649   17.7162 C   0  0  0  0  0  0  0  0  0  0  0  0
    3.1667  -13.2314   17.2111 C   0  0  0  0  0  0  0  0  0  0  0  0
    3.4449  -14.5566   17.3049 N   0  0  0  0  0  0  0  0  0  0  0  0
    4.6806  -14.5895   17.7592 C   0  0  0  0  0  0  0  0  0  0  0  0
    7.3962  -14.1784   18.2931 N   0  0  0  0  0  0  0  0  0  0  0  0
    8.6766  -13.9811   18.5941 C   0  0  0  0  0  0  0  0  0  0  0  0
    9.2065  -12.8420   19.0442 N   0  0  0  0  0  0  0  0  0  0  0  0
    8.2775   -9.5001   20.2882 C   0  0  0  0  0  0  0  0  0  0  0  0
   14.9477   -5.6410   20.4636 H   0  0  0  0  0  0  0  0  0  0  0  0
   14.3178   -4.4564   21.6598 H   0  0  0  0  0  0  0  0  0  0  0  0
   14.9655   -6.0054   22.1742 H   0  0  0  0  0  0  0  0  0  0  0  0
   13.1268   -7.2192   21.0931 H   0  0  0  0  0  0  0  0  0  0  0  0
   12.6509   -6.1431   22.3568 H   0  0  0  0  0  0  0  0  0  0  0  0
   11.8375   -4.5618   20.9407 H   0  0  0  0  0  0  0  0  0  0  0  0
   12.1300   -4.7024   18.1792 H   0  0  0  0  0  0  0  0  0  0  0  0
   13.5132   -5.5709   18.7493 H   0  0  0  0  0  0  0  0  0  0  0  0
   14.5885   -3.7214   19.3051 H   0  0  0  0  0  0  0  0  0  0  0  0
   13.3512   -2.8985   18.3910 H   0  0  0  0  0  0  0  0  0  0  0  0
   13.2121   -3.0289   20.1646 H   0  0  0  0  0  0  0  0  0  0  0  0
   11.2452   -7.9491   21.0926 H   0  0  0  0  0  0  0  0  0  0  0  0
    8.6723   -8.3976   22.0916 H   0  0  0  0  0  0  0  0  0  0  0  0
   11.0012   -9.7709   22.2457 H   0  0  0  0  0  0  0  0  0  0  0  0
    9.4442  -10.5731   22.4842 H   0  0  0  0  0  0  0  0  0  0  0  0
   10.4185  -11.8965   20.8159 H   0  0  0  0  0  0  0  0  0  0  0  0
   11.1028  -10.5331   19.9182 H   0  0  0  0  0  0  0  0  0  0  0  0
    6.3935  -11.0164   18.9361 H   0  0  0  0  0  0  0  0  0  0  0  0
    4.3168  -11.3964   17.8089 H   0  0  0  0  0  0  0  0  0  0  0  0
    2.2210  -12.8815   16.8176 H   0  0  0  0  0  0  0  0  0  0  0  0
    5.2792  -15.4682   17.9402 H   0  0  0  0  0  0  0  0  0  0  0  0
    9.3495  -14.8224   18.4736 H   0  0  0  0  0  0  0  0  0  0  0  0
    7.8295   -8.8664   19.5341 H   0  0  0  0  0  0  0  0  0  0  0  0
    7.4436   -9.8860   20.8923 H   0  0  0  0  0  0  0  0  0  0  0  0
  1  2  1  0
  2  3  1  0
  3  4  1  0
  4  5  1  0
  3  6  1  0
  6  7  2  0
  6  8  1  0
  8  9  1  0
  9 10  1  0
 10 11  1  0
 11 12  1  0
 12 13  1  0
 13 14  2  0
 14 15  1  0
 15 16  1  0
 16 17  1  0
 17 18  2  0
 18 19  1  0
 19 20  2  0
 15 21  2  0
 21 22  1  0
 22 23  2  0
 12 24  1  0
 24  9  1  0
 23 13  1  0
 20 16  1  0
  1 25  1  0
  1 26  1  0
  1 27  1  0
  2 28  1  0
  2 29  1  0
  3 30  1  0
  4 31  1  0
  4 32  1  0
  5 33  1  0
  5 34  1  0
  5 35  1  0
  8 36  1  0
  9 37  1  0
 10 38  1  0
 10 39  1  0
 11 40  1  0
 11 41  1  0
 14 42  1  0
 17 43  1  0
 18 44  1  0
 20 45  1  0
 22 46  1  0
 24 47  1  0
 24 48  1  0
M  END
>  <Energy>  (1233) 
89.334963671436014

>  <compound_id>  (1233) 
44104

>  <target_id>  (1233) 
1

>  <reference_id>  (1233) 
115

>  <inspiration_ids>  (1233) 
[115, 27]

>  <energy_score>  (1233) 
74.97819939184512

>  <distance_score>  (1233) 
13.993607857222615

>  <path>  (1233) 
/opt/xchem-fragalysis-2/maxwin/BulkDock/SCRATCH/511016/C44104-P115/C44104-P115.minimised.mol

>  <scratch_subdir>  (1233) 
/opt/xchem-fragalysis-2/maxwin/BulkDock/SCRATCH/511016/C44104-P115

>  <fragmenstein_runtime>  (1233) 
37.051499366760254

>  <fragmenstein_outcome>  (1233) 
too moved

>  <fragmenstein_mode>  (1233) 
expansion

>  <fragmenstein_error>  (1233) 


$$$$
C44104-P27
     RDKit          3D

 48 50  0  0  0  0  0  0  0  0999 V2000
    6.8185   -5.5177   23.6349 C   0  0  0  0  0  0  0  0  0  0  0  0
    6.7386   -6.9086   24.2726 C   0  0  0  0  0  0  0  0  0  0  0  0
    7.3580   -8.0485   23.4523 C   0  0  0  0  0  0  0  0  0  0  0  0
    6.5727   -8.3756   22.1561 C   0  0  0  0  0  0  0  0  0  0  0  0
    7.2052   -7.8723   20.8562 C   0  0  0  0  0  0  0  0  0  0  0  0
    7.8395   -9.3420   24.2022 C   0  0  0  0  0  0  0  0  0  0  0  0
    8.8277   -9.8346   23.7277 O   0  0  0  0  0  0  0  0  0  0  0  0
    7.0098   -9.7717   25.3009 N   0  0  0  0  0  0  0  0  0  0  0  0
    7.1652  -10.8964   26.2515 C   0  0  0  0  0  0  0  0  0  0  0  0
    7.7491  -12.0837   25.5006 C   0  0  0  0  0  0  0  0  0  0  0  0
    7.2452  -13.2485   26.3172 C   0  0  0  0  0  0  0  0  0  0  0  0
    5.6627  -12.9985   26.5247 N   0  0  0  0  0  0  0  0  0  0  0  0
    4.2483  -14.0353   26.1521 C   0  0  0  0  0  0  0  0  0  0  0  0
    2.8397  -14.2595   27.2232 C   0  0  0  0  0  0  0  0  0  0  0  0
    1.0410  -14.2808   27.0085 C   0  0  0  0  0  0  0  0  0  0  0  0
   -0.6827  -14.7970   27.9617 N   0  0  0  0  0  0  0  0  0  0  0  0
   -2.1012  -15.0000   27.8324 C   0  0  0  0  0  0  0  0  0  0  0  0
   -2.8068  -14.6703   29.0306 C   0  0  0  0  0  0  0  0  0  0  0  0
   -2.0226  -14.8105   30.1299 N   0  0  0  0  0  0  0  0  0  0  0  0
   -0.8661  -15.1600   29.6091 C   0  0  0  0  0  0  0  0  0  0  0  0
    1.0386  -13.3641   25.9937 N   0  0  0  0  0  0  0  0  0  0  0  0
    2.1762  -13.1641   24.9357 C   0  0  0  0  0  0  0  0  0  0  0  0
    3.6561  -13.7749   24.9045 N   0  0  0  0  0  0  0  0  0  0  0  0
    5.9425  -11.5265   27.0960 C   0  0  0  0  0  0  0  0  0  0  0  0
    7.8053   -5.0903   23.7956 H   0  0  0  0  0  0  0  0  0  0  0  0
    6.5777   -5.5255   22.5710 H   0  0  0  0  0  0  0  0  0  0  0  0
    6.1069   -4.8493   24.1319 H   0  0  0  0  0  0  0  0  0  0  0  0
    7.2163   -6.8613   25.2591 H   0  0  0  0  0  0  0  0  0  0  0  0
    5.6831   -7.1427   24.4608 H   0  0  0  0  0  0  0  0  0  0  0  0
    8.3234   -7.6529   23.1520 H   0  0  0  0  0  0  0  0  0  0  0  0
    5.5528   -7.9782   22.2234 H   0  0  0  0  0  0  0  0  0  0  0  0
    6.4618   -9.4639   22.0666 H   0  0  0  0  0  0  0  0  0  0  0  0
    7.2319   -6.7814   20.8131 H   0  0  0  0  0  0  0  0  0  0  0  0
    8.2185   -8.2692   20.7441 H   0  0  0  0  0  0  0  0  0  0  0  0
    6.6144   -8.2188   20.0017 H   0  0  0  0  0  0  0  0  0  0  0  0
    6.3075   -9.0673   25.4774 H   0  0  0  0  0  0  0  0  0  0  0  0
    7.8948  -10.5289   26.9846 H   0  0  0  0  0  0  0  0  0  0  0  0
    7.3773  -12.1262   24.4760 H   0  0  0  0  0  0  0  0  0  0  0  0
    8.8428  -12.0489   25.4694 H   0  0  0  0  0  0  0  0  0  0  0  0
    7.7333  -13.0997   27.2905 H   0  0  0  0  0  0  0  0  0  0  0  0
    7.6501  -14.2373   26.0794 H   0  0  0  0  0  0  0  0  0  0  0  0
    3.1371  -15.1343   27.8419 H   0  0  0  0  0  0  0  0  0  0  0  0
   -2.2816  -15.8966   27.2739 H   0  0  0  0  0  0  0  0  0  0  0  0
   -3.8599  -14.7134   29.2661 H   0  0  0  0  0  0  0  0  0  0  0  0
   -0.0107  -15.6068   30.1056 H   0  0  0  0  0  0  0  0  0  0  0  0
    2.0615  -12.4286   24.1444 H   0  0  0  0  0  0  0  0  0  0  0  0
    6.3146  -11.7061   28.1153 H   0  0  0  0  0  0  0  0  0  0  0  0
    5.2039  -10.7549   27.2833 H   0  0  0  0  0  0  0  0  0  0  0  0
  1  2  1  0
  2  3  1  0
  3  4  1  0
  4  5  1  0
  3  6  1  0
  6  7  2  0
  6  8  1  0
  8  9  1  0
  9 10  1  0
 10 11  1  0
 11 12  1  0
 12 13  1  0
 13 14  2  0
 14 15  1  0
 15 16  1  0
 16 17  1  0
 17 18  2  0
 18 19  1  0
 19 20  2  0
 15 21  2  0
 21 22  1  0
 22 23  2  0
 12 24  1  0
 24  9  1  0
 23 13  1  0
 20 16  1  0
  1 25  1  0
  1 26  1  0
  1 27  1  0
  2 28  1  0
  2 29  1  0
  3 30  1  0
  4 31  1  0
  4 32  1  0
  5 33  1  0
  5 34  1  0
  5 35  1  0
  8 36  1  0
  9 37  1  0
 10 38  1  0
 10 39  1  0
 11 40  1  0
 11 41  1  0
 14 42  1  0
 17 43  1  0
 18 44  1  0
 20 45  1  0
 22 46  1  0
 24 47  1  0
 24 48  1  0
M  END
>  <Energy>  (1234) 
577.14802684119695

>  <compound_id>  (1234) 
44104

>  <target_id>  (1234) 
1

>  <reference_id>  (1234) 
27

>  <inspiration_ids>  (1234) 
[115, 27]

>  <energy_score>  (1234) 
562.7912625615957

>  <distance_score>  (1234) 
13.042878026252852

>  <path>  (1234) 
/opt/xchem-fragalysis-2/maxwin/BulkDock/SCRATCH/511016/C44104-P27/C44104-P27.minimised.mol

>  <scratch_subdir>  (1234) 
/opt/xchem-fragalysis-2/maxwin/BulkDock/SCRATCH/511016/C44104-P27

>  <fragmenstein_runtime>  (1234) 
48.969555139541626

>  <fragmenstein_outcome>  (1234) 
too moved

>  <fragmenstein_mode>  (1234) 
expansion

>  <fragmenstein_error>  (1234) 


$$$$
C44145-P115
     RDKit          3D

 45 46  0  0  0  0  0  0  0  0999 V2000
   15.0807   -2.2618   21.3385 C   0  0  0  0  0  0  0  0  0  0  0  0
   15.3106   -3.7556   21.5844 C   0  0  0  0  0  0  0  0  0  0  0  0
   14.0094   -4.5835   21.6731 C   0  0  0  0  0  0  0  0  0  0  0  0
   13.1963   -4.5117   20.3653 C   0  0  0  0  0  0  0  0  0  0  0  0
   13.9710   -4.5991   19.0544 C   0  0  0  0  0  0  0  0  0  0  0  0
   14.2600   -6.0794   22.0875 C   0  0  0  0  0  0  0  0  0  0  0  0
   15.2074   -6.6463   21.6228 O   0  0  0  0  0  0  0  0  0  0  0  0
   13.1999   -6.5628   22.9587 N   0  0  0  0  0  0  0  0  0  0  0  0
   13.0139   -7.8546   23.6111 C   0  0  0  0  0  0  0  0  0  0  0  0
   12.1378   -8.7785   22.9306 C   0  0  0  0  0  0  0  0  0  0  0  0
   11.4279   -8.6101   24.4708 C   0  0  0  0  0  0  0  0  0  0  0  0
   10.5247   -9.4407   24.8928 N   0  0  0  0  0  0  0  0  0  0  0  0
    9.1175   -9.2999   25.6758 C   0  0  0  0  0  0  0  0  0  0  0  0
    8.5860   -8.3926   26.1669 O   0  0  0  0  0  0  0  0  0  0  0  0
    8.5081  -10.7355   25.6647 C   0  0  0  0  0  0  0  0  0  0  0  0
    7.3214  -10.9458   26.6105 C   0  0  0  0  0  0  0  0  0  0  0  0
    6.8397  -12.1014   27.0377 N   0  0  0  0  0  0  0  0  0  0  0  0
    5.8862  -11.7781   27.9676 C   0  0  0  0  0  0  0  0  0  0  0  0
    5.7070  -10.4283   28.0645 C   0  0  0  0  0  0  0  0  0  0  0  0
    6.5915   -9.9146   27.1658 N   0  0  0  0  0  0  0  0  0  0  0  0
   11.8419   -7.9741   24.7642 C   0  0  0  0  0  0  0  0  0  0  0  0
   16.0420   -1.7382   21.3177 H   0  0  0  0  0  0  0  0  0  0  0  0
   14.5737   -2.0622   20.3923 H   0  0  0  0  0  0  0  0  0  0  0  0
   14.4829   -1.8288   22.1465 H   0  0  0  0  0  0  0  0  0  0  0  0
   15.8579   -3.8679   22.5292 H   0  0  0  0  0  0  0  0  0  0  0  0
   15.9760   -4.1558   20.8107 H   0  0  0  0  0  0  0  0  0  0  0  0
   13.4010   -4.1286   22.4664 H   0  0  0  0  0  0  0  0  0  0  0  0
   12.6738   -3.5546   20.3670 H   0  0  0  0  0  0  0  0  0  0  0  0
   12.4414   -5.3031   20.3768 H   0  0  0  0  0  0  0  0  0  0  0  0
   14.5628   -3.6996   18.8670 H   0  0  0  0  0  0  0  0  0  0  0  0
   13.2811   -4.7054   18.2124 H   0  0  0  0  0  0  0  0  0  0  0  0
   14.6538   -5.4516   19.0629 H   0  0  0  0  0  0  0  0  0  0  0  0
   12.6066   -5.7838   23.2217 H   0  0  0  0  0  0  0  0  0  0  0  0
   13.9717   -8.2863   23.9211 H   0  0  0  0  0  0  0  0  0  0  0  0
   11.5289   -8.3905   22.1097 H   0  0  0  0  0  0  0  0  0  0  0  0
   12.5222   -9.7849   22.7384 H   0  0  0  0  0  0  0  0  0  0  0  0
   12.0315   -9.7074   24.6477 H   0  0  0  0  0  0  0  0  0  0  0  0
   10.4455   -8.3542   23.7587 H   0  0  0  0  0  0  0  0  0  0  0  0
    9.2933  -11.4479   25.9419 H   0  0  0  0  0  0  0  0  0  0  0  0
    8.1798  -10.9519   24.6423 H   0  0  0  0  0  0  0  0  0  0  0  0
    5.3410  -12.5313   28.5007 H   0  0  0  0  0  0  0  0  0  0  0  0
    5.0587   -9.8166   28.6753 H   0  0  0  0  0  0  0  0  0  0  0  0
    6.7935   -8.9336   27.0092 H   0  0  0  0  0  0  0  0  0  0  0  0
   12.4312   -7.9647   25.8305 H   0  0  0  0  0  0  0  0  0  0  0  0
   11.3150   -6.8914   24.9687 H   0  0  0  0  0  0  0  0  0  0  0  0
  1  2  1  0
  2  3  1  0
  3  4  1  0
  4  5  1  0
  3  6  1  0
  6  7  2  0
  6  8  1  0
  8  9  1  0
  9 10  1  0
 10 11  1  0
 11 12  1  0
 12 13  1  0
 13 14  2  0
 13 15  1  0
 15 16  1  0
 16 17  2  0
 17 18  1  0
 18 19  2  0
 19 20  1  0
 12 21  1  0
 21  9  1  0
 20 16  1  0
  1 22  1  0
  1 23  1  0
  1 24  1  0
  2 25  1  0
  2 26  1  0
  3 27  1  0
  4 28  1  0
  4 29  1  0
  5 30  1  0
  5 31  1  0
  5 32  1  0
  8 33  1  0
  9 34  1  0
 10 35  1  0
 10 36  1  0
 11 37  1  0
 11 38  1  0
 15 39  1  0
 15 40  1  0
 18 41  1  0
 19 42  1  0
 20 43  1  0
 21 44  1  0
 21 45  1  0
M  END
>  <Energy>  (1235) 
777.22074131052307

>  <compound_id>  (1235) 
44145

>  <target_id>  (1235) 
1

>  <reference_id>  (1235) 
115

>  <inspiration_ids>  (1235) 
[115, 27]

>  <energy_score>  (1235) 
728.5366677861374

>  <distance_score>  (1235) 
13.435978859302816

>  <path>  (1235) 
/opt/xchem-fragalysis-2/maxwin/BulkDock/SCRATCH/511016/C44145-P115/C44145-P115.minimised.mol

>  <scratch_subdir>  (1235) 
/opt/xchem-fragalysis-2/maxwin/BulkDock/SCRATCH/511016/C44145-P115

>  <fragmenstein_runtime>  (1235) 
25.677345275878906

>  <fragmenstein_outcome>  (1235) 
too moved

>  <fragmenstein_mode>  (1235) 
expansion

>  <fragmenstein_error>  (1235) 


$$$$
C44145-P27
     RDKit          3D

 45 46  0  0  0  0  0  0  0  0999 V2000
   10.5821   -7.1491   25.6292 C   0  0  0  0  0  0  0  0  0  0  0  0
   11.0413   -8.6023   25.5273 C   0  0  0  0  0  0  0  0  0  0  0  0
   11.2179   -9.2041   24.1197 C   0  0  0  0  0  0  0  0  0  0  0  0
   12.2326   -8.3201   23.3444 C   0  0  0  0  0  0  0  0  0  0  0  0
   12.4570   -8.7073   21.9090 C   0  0  0  0  0  0  0  0  0  0  0  0
    9.8405   -9.4848   23.4220 C   0  0  0  0  0  0  0  0  0  0  0  0
    9.5085   -8.7580   22.5331 O   0  0  0  0  0  0  0  0  0  0  0  0
    9.1762  -10.6352   23.9968 N   0  0  0  0  0  0  0  0  0  0  0  0
    7.8663  -11.2019   23.7389 C   0  0  0  0  0  0  0  0  0  0  0  0
    6.8981  -10.8562   24.7446 C   0  0  0  0  0  0  0  0  0  0  0  0
    6.8614  -12.5468   24.7004 C   0  0  0  0  0  0  0  0  0  0  0  0
    5.9889  -13.1481   25.4369 N   0  0  0  0  0  0  0  0  0  0  0  0
    4.9048  -14.3701   25.1938 C   0  0  0  0  0  0  0  0  0  0  0  0
    4.7271  -15.0817   24.2951 O   0  0  0  0  0  0  0  0  0  0  0  0
    4.0548  -14.4062   26.6930 C   0  0  0  0  0  0  0  0  0  0  0  0
    3.5200  -15.5885   27.6088 C   0  0  0  0  0  0  0  0  0  0  0  0
    3.7580  -16.8448   27.7374 N   0  0  0  0  0  0  0  0  0  0  0  0
    2.7760  -17.3776   27.0603 C   0  0  0  0  0  0  0  0  0  0  0  0
    1.7064  -16.9197   27.7554 C   0  0  0  0  0  0  0  0  0  0  0  0
    2.1230  -15.6511   27.9507 N   0  0  0  0  0  0  0  0  0  0  0  0
    7.4698  -12.7392   24.1865 C   0  0  0  0  0  0  0  0  0  0  0  0
   11.2854   -6.4453   25.1810 H   0  0  0  0  0  0  0  0  0  0  0  0
    9.5814   -7.0325   25.2072 H   0  0  0  0  0  0  0  0  0  0  0  0
   10.5055   -6.8751   26.6881 H   0  0  0  0  0  0  0  0  0  0  0  0
   10.3311   -9.2165   26.0948 H   0  0  0  0  0  0  0  0  0  0  0  0
   11.9975   -8.6866   26.0606 H   0  0  0  0  0  0  0  0  0  0  0  0
   11.6940  -10.1890   24.2324 H   0  0  0  0  0  0  0  0  0  0  0  0
   11.9632   -7.2675   23.3747 H   0  0  0  0  0  0  0  0  0  0  0  0
   13.1970   -8.3855   23.8664 H   0  0  0  0  0  0  0  0  0  0  0  0
   12.7224   -9.7651   21.8193 H   0  0  0  0  0  0  0  0  0  0  0  0
   13.2747   -8.1103   21.4945 H   0  0  0  0  0  0  0  0  0  0  0  0
   11.5521   -8.5185   21.3328 H   0  0  0  0  0  0  0  0  0  0  0  0
    9.7892  -11.0626   24.6839 H   0  0  0  0  0  0  0  0  0  0  0  0
    7.5412  -10.9702   22.7182 H   0  0  0  0  0  0  0  0  0  0  0  0
    5.9706  -10.3876   24.4019 H   0  0  0  0  0  0  0  0  0  0  0  0
    7.2653  -10.4400   25.6891 H   0  0  0  0  0  0  0  0  0  0  0  0
    5.7792  -12.3270   24.0924 H   0  0  0  0  0  0  0  0  0  0  0  0
    7.2514  -12.3816   25.8824 H   0  0  0  0  0  0  0  0  0  0  0  0
    3.1015  -13.9962   26.4207 H   0  0  0  0  0  0  0  0  0  0  0  0
    4.5528  -13.7019   27.3680 H   0  0  0  0  0  0  0  0  0  0  0  0
    2.9508  -18.1530   26.3505 H   0  0  0  0  0  0  0  0  0  0  0  0
    0.7241  -17.3395   27.8489 H   0  0  0  0  0  0  0  0  0  0  0  0
    1.6166  -14.9010   27.5482 H   0  0  0  0  0  0  0  0  0  0  0  0
    8.4762  -13.3305   24.5407 H   0  0  0  0  0  0  0  0  0  0  0  0
    7.3117  -13.3970   23.1737 H   0  0  0  0  0  0  0  0  0  0  0  0
  1  2  1  0
  2  3  1  0
  3  4  1  0
  4  5  1  0
  3  6  1  0
  6  7  2  0
  6  8  1  0
  8  9  1  0
  9 10  1  0
 10 11  1  0
 11 12  1  0
 12 13  1  0
 13 14  2  0
 13 15  1  0
 15 16  1  0
 16 17  2  0
 17 18  1  0
 18 19  2  0
 19 20  1  0
 12 21  1  0
 21  9  1  0
 20 16  1  0
  1 22  1  0
  1 23  1  0
  1 24  1  0
  2 25  1  0
  2 26  1  0
  3 27  1  0
  4 28  1  0
  4 29  1  0
  5 30  1  0
  5 31  1  0
  5 32  1  0
  8 33  1  0
  9 34  1  0
 10 35  1  0
 10 36  1  0
 11 37  1  0
 11 38  1  0
 15 39  1  0
 15 40  1  0
 18 41  1  0
 19 42  1  0
 20 43  1  0
 21 44  1  0
 21 45  1  0
M  END
>  <Energy>  (1236) 
877.21330146084915

>  <compound_id>  (1236) 
44145

>  <target_id>  (1236) 
1

>  <reference_id>  (1236) 
27

>  <inspiration_ids>  (1236) 
[115, 27]

>  <energy_score>  (1236) 
828.5292279364602

>  <distance_score>  (1236) 
13.281466021228312

>  <path>  (1236) 
/opt/xchem-fragalysis-2/maxwin/BulkDock/SCRATCH/511016/C44145-P27/C44145-P27.minimised.mol

>  <scratch_subdir>  (1236) 
/opt/xchem-fragalysis-2/maxwin/BulkDock/SCRATCH/511016/C44145-P27

>  <fragmenstein_runtime>  (1236) 
24.519062042236328

>  <fragmenstein_outcome>  (1236) 
too moved

>  <fragmenstein_mode>  (1236) 
expansion

>  <fragmenstein_error>  (1236) 


$$$$
C44123-P115
     RDKit          3D

 45 46  0  0  0  0  0  0  0  0999 V2000
    7.5023   -8.7267   21.1414 C   0  0  0  0  0  0  0  0  0  0  0  0
    6.0256   -9.0176   21.4435 C   0  0  0  0  0  0  0  0  0  0  0  0
    5.4248   -8.4350   22.7639 C   0  0  0  0  0  0  0  0  0  0  0  0
    5.9486   -6.9744   22.9675 C   0  0  0  0  0  0  0  0  0  0  0  0
    5.6418   -5.9939   21.8270 C   0  0  0  0  0  0  0  0  0  0  0  0
    5.7570   -9.3961   23.9989 C   0  0  0  0  0  0  0  0  0  0  0  0
    6.8347   -9.2185   24.5004 O   0  0  0  0  0  0  0  0  0  0  0  0
    4.7289  -10.4201   24.2709 N   0  0  0  0  0  0  0  0  0  0  0  0
    4.7504  -11.5940   25.1674 C   0  0  0  0  0  0  0  0  0  0  0  0
    5.0256  -12.7117   24.2579 C   0  0  0  0  0  0  0  0  0  0  0  0
    4.1207  -13.4289   25.3720 C   0  0  0  0  0  0  0  0  0  0  0  0
    4.1646  -14.6259   26.0210 N   0  0  0  0  0  0  0  0  0  0  0  0
    3.6382  -15.1909   27.3484 C   0  0  0  0  0  0  0  0  0  0  0  0
    4.4312  -15.0285   28.1931 O   0  0  0  0  0  0  0  0  0  0  0  0
    2.1373  -16.2292   27.9441 C   0  0  0  0  0  0  0  0  0  0  0  0
    1.0824  -16.3979   29.3698 N   0  0  0  0  0  0  0  0  0  0  0  0
   -0.1485  -15.5919   29.7350 C   0  0  0  0  0  0  0  0  0  0  0  0
   -0.2861  -15.6455   31.1379 C   0  0  0  0  0  0  0  0  0  0  0  0
    0.5679  -16.6001   31.6435 N   0  0  0  0  0  0  0  0  0  0  0  0
    1.3330  -17.0261   30.6469 C   0  0  0  0  0  0  0  0  0  0  0  0
    3.5909  -12.7836   25.8847 C   0  0  0  0  0  0  0  0  0  0  0  0
    8.1334   -8.9395   22.0089 H   0  0  0  0  0  0  0  0  0  0  0  0
    7.6606   -7.6980   20.8217 H   0  0  0  0  0  0  0  0  0  0  0  0
    7.8385   -9.3677   20.3191 H   0  0  0  0  0  0  0  0  0  0  0  0
    5.4303   -8.6513   20.5975 H   0  0  0  0  0  0  0  0  0  0  0  0
    5.8914  -10.1068   21.4570 H   0  0  0  0  0  0  0  0  0  0  0  0
    4.3323   -8.4030   22.6678 H   0  0  0  0  0  0  0  0  0  0  0  0
    7.0273   -6.9785   23.1588 H   0  0  0  0  0  0  0  0  0  0  0  0
    5.4929   -6.5827   23.8862 H   0  0  0  0  0  0  0  0  0  0  0  0
    6.0986   -6.2760   20.8776 H   0  0  0  0  0  0  0  0  0  0  0  0
    4.5603   -5.9231   21.6724 H   0  0  0  0  0  0  0  0  0  0  0  0
    6.0094   -4.9962   22.0886 H   0  0  0  0  0  0  0  0  0  0  0  0
    3.9762  -10.3202   23.6006 H   0  0  0  0  0  0  0  0  0  0  0  0
    5.5543  -11.4392   25.9024 H   0  0  0  0  0  0  0  0  0  0  0  0
    4.5298  -12.6447   23.2800 H   0  0  0  0  0  0  0  0  0  0  0  0
    6.0726  -13.0229   24.1584 H   0  0  0  0  0  0  0  0  0  0  0  0
    3.7988  -14.0540   24.4513 H   0  0  0  0  0  0  0  0  0  0  0  0
    5.2430  -13.5726   25.7400 H   0  0  0  0  0  0  0  0  0  0  0  0
    1.4650  -15.6327   27.4921 H   0  0  0  0  0  0  0  0  0  0  0  0
    2.0806  -17.2023   27.4798 H   0  0  0  0  0  0  0  0  0  0  0  0
   -0.7344  -15.0908   28.9745 H   0  0  0  0  0  0  0  0  0  0  0  0
   -1.0085  -15.1333   31.7600 H   0  0  0  0  0  0  0  0  0  0  0  0
    2.1777  -17.6717   30.8281 H   0  0  0  0  0  0  0  0  0  0  0  0
    3.5337  -12.4534   26.9828 H   0  0  0  0  0  0  0  0  0  0  0  0
    2.4660  -12.6331   25.5965 H   0  0  0  0  0  0  0  0  0  0  0  0
  1  2  1  0
  2  3  1  0
  3  4  1  0
  4  5  1  0
  3  6  1  0
  6  7  2  0
  6  8  1  0
  8  9  1  0
  9 10  1  0
 10 11  1  0
 11 12  1  0
 12 13  1  0
 13 14  2  0
 13 15  1  0
 15 16  1  0
 16 17  1  0
 17 18  2  0
 18 19  1  0
 19 20  2  0
 12 21  1  0
 21  9  1  0
 20 16  1  0
  1 22  1  0
  1 23  1  0
  1 24  1  0
  2 25  1  0
  2 26  1  0
  3 27  1  0
  4 28  1  0
  4 29  1  0
  5 30  1  0
  5 31  1  0
  5 32  1  0
  8 33  1  0
  9 34  1  0
 10 35  1  0
 10 36  1  0
 11 37  1  0
 11 38  1  0
 15 39  1  0
 15 40  1  0
 17 41  1  0
 18 42  1  0
 20 43  1  0
 21 44  1  0
 21 45  1  0
M  END
>  <Energy>  (1237) 
793.38158754983874

>  <compound_id>  (1237) 
44123

>  <target_id>  (1237) 
1

>  <reference_id>  (1237) 
115

>  <inspiration_ids>  (1237) 
[115, 27]

>  <energy_score>  (1237) 
734.7102944787233

>  <distance_score>  (1237) 
14.073367196462813

>  <path>  (1237) 
/opt/xchem-fragalysis-2/maxwin/BulkDock/SCRATCH/511016/C44123-P115/C44123-P115.minimised.mol

>  <scratch_subdir>  (1237) 
/opt/xchem-fragalysis-2/maxwin/BulkDock/SCRATCH/511016/C44123-P115

>  <fragmenstein_runtime>  (1237) 
19.89269495010376

>  <fragmenstein_outcome>  (1237) 
too moved

>  <fragmenstein_mode>  (1237) 
expansion

>  <fragmenstein_error>  (1237) 


$$$$
C44123-P27
     RDKit          3D

 45 46  0  0  0  0  0  0  0  0999 V2000
    9.9625   -9.1614   21.1649 C   0  0  0  0  0  0  0  0  0  0  0  0
    9.2973   -9.3643   22.5173 C   0  0  0  0  0  0  0  0  0  0  0  0
    7.8410   -9.9370   22.5413 C   0  0  0  0  0  0  0  0  0  0  0  0
    6.7991   -8.8978   22.0456 C   0  0  0  0  0  0  0  0  0  0  0  0
    6.9245   -8.3831   20.6142 C   0  0  0  0  0  0  0  0  0  0  0  0
    7.5086  -10.3337   24.0493 C   0  0  0  0  0  0  0  0  0  0  0  0
    7.9329   -9.5827   24.8855 O   0  0  0  0  0  0  0  0  0  0  0  0
    6.7466  -11.5688   24.1824 N   0  0  0  0  0  0  0  0  0  0  0  0
    6.3425  -12.3349   25.3862 C   0  0  0  0  0  0  0  0  0  0  0  0
    5.8797  -11.3850   26.4882 C   0  0  0  0  0  0  0  0  0  0  0  0
    5.1125  -12.2558   27.4883 C   0  0  0  0  0  0  0  0  0  0  0  0
    4.6202  -13.4342   26.7675 N   0  0  0  0  0  0  0  0  0  0  0  0
    3.7743  -14.4275   27.3349 C   0  0  0  0  0  0  0  0  0  0  0  0
    2.5905  -14.0995   27.1527 O   0  0  0  0  0  0  0  0  0  0  0  0
    3.8869  -16.2615   28.1832 C   0  0  0  0  0  0  0  0  0  0  0  0
    4.3001  -17.1815   29.8708 N   0  0  0  0  0  0  0  0  0  0  0  0
    4.4652  -18.4066   30.5437 C   0  0  0  0  0  0  0  0  0  0  0  0
    3.8006  -18.4056   31.7649 C   0  0  0  0  0  0  0  0  0  0  0  0
    3.9861  -17.2029   32.2916 N   0  0  0  0  0  0  0  0  0  0  0  0
    4.7639  -16.6703   31.3684 C   0  0  0  0  0  0  0  0  0  0  0  0
    5.1706  -13.3721   25.3492 C   0  0  0  0  0  0  0  0  0  0  0  0
    9.5163   -8.3565   20.5911 H   0  0  0  0  0  0  0  0  0  0  0  0
    9.9206  -10.0785   20.5697 H   0  0  0  0  0  0  0  0  0  0  0  0
   11.0140   -8.9075   21.3254 H   0  0  0  0  0  0  0  0  0  0  0  0
    9.3304   -8.4318   23.0871 H   0  0  0  0  0  0  0  0  0  0  0  0
    9.9320  -10.0654   23.0774 H   0  0  0  0  0  0  0  0  0  0  0  0
    7.8017  -10.8385   21.9192 H   0  0  0  0  0  0  0  0  0  0  0  0
    6.7815   -8.0385   22.7283 H   0  0  0  0  0  0  0  0  0  0  0  0
    5.8098   -9.3649   22.1432 H   0  0  0  0  0  0  0  0  0  0  0  0
    5.9507   -8.0196   20.2674 H   0  0  0  0  0  0  0  0  0  0  0  0
    7.6029   -7.5312   20.5636 H   0  0  0  0  0  0  0  0  0  0  0  0
    7.2514   -9.1707   19.9296 H   0  0  0  0  0  0  0  0  0  0  0  0
    6.6295  -11.9861   23.2651 H   0  0  0  0  0  0  0  0  0  0  0  0
    7.2486  -12.8493   25.7298 H   0  0  0  0  0  0  0  0  0  0  0  0
    6.7087  -10.8584   26.9717 H   0  0  0  0  0  0  0  0  0  0  0  0
    5.2039  -10.6239   26.0766 H   0  0  0  0  0  0  0  0  0  0  0  0
    4.2273  -11.7027   27.8280 H   0  0  0  0  0  0  0  0  0  0  0  0
    5.6726  -12.4496   28.3855 H   0  0  0  0  0  0  0  0  0  0  0  0
    3.7673  -17.1252   27.5856 H   0  0  0  0  0  0  0  0  0  0  0  0
    2.7726  -16.4427   28.1541 H   0  0  0  0  0  0  0  0  0  0  0  0
    5.2652  -19.0955   30.3209 H   0  0  0  0  0  0  0  0  0  0  0  0
    3.5259  -19.2453   32.3904 H   0  0  0  0  0  0  0  0  0  0  0  0
    5.2628  -15.7107   31.4571 H   0  0  0  0  0  0  0  0  0  0  0  0
    4.3514  -12.9894   24.7284 H   0  0  0  0  0  0  0  0  0  0  0  0
    5.4439  -14.3535   24.9524 H   0  0  0  0  0  0  0  0  0  0  0  0
  1  2  1  0
  2  3  1  0
  3  4  1  0
  4  5  1  0
  3  6  1  0
  6  7  2  0
  6  8  1  0
  8  9  1  0
  9 10  1  0
 10 11  1  0
 11 12  1  0
 12 13  1  0
 13 14  2  0
 13 15  1  0
 15 16  1  0
 16 17  1  0
 17 18  2  0
 18 19  1  0
 19 20  2  0
 12 21  1  0
 21  9  1  0
 20 16  1  0
  1 22  1  0
  1 23  1  0
  1 24  1  0
  2 25  1  0
  2 26  1  0
  3 27  1  0
  4 28  1  0
  4 29  1  0
  5 30  1  0
  5 31  1  0
  5 32  1  0
  8 33  1  0
  9 34  1  0
 10 35  1  0
 10 36  1  0
 11 37  1  0
 11 38  1  0
 15 39  1  0
 15 40  1  0
 17 41  1  0
 18 42  1  0
 20 43  1  0
 21 44  1  0
 21 45  1  0
M  END
>  <Energy>  (1238) 
367.46043985331988

>  <compound_id>  (1238) 
44123

>  <target_id>  (1238) 
1

>  <reference_id>  (1238) 
27

>  <inspiration_ids>  (1238) 
[115, 27]

>  <energy_score>  (1238) 
308.7891467822135

>  <distance_score>  (1238) 
14.47157059713271

>  <path>  (1238) 
/opt/xchem-fragalysis-2/maxwin/BulkDock/SCRATCH/511016/C44123-P27/C44123-P27.minimised.mol

>  <scratch_subdir>  (1238) 
/opt/xchem-fragalysis-2/maxwin/BulkDock/SCRATCH/511016/C44123-P27

>  <fragmenstein_runtime>  (1238) 
27.577564239501953

>  <fragmenstein_outcome>  (1238) 
too moved

>  <fragmenstein_mode>  (1238) 
expansion

>  <fragmenstein_error>  (1238) 


$$$$
C44122-P115
     RDKit          3D

 48 49  0  0  0  0  0  0  0  0999 V2000
    6.1225   -6.5289   20.4363 C   0  0  0  0  0  0  0  0  0  0  0  0
    4.6331   -6.2842   20.2086 C   0  0  0  0  0  0  0  0  0  0  0  0
    3.8076   -7.3950   19.4686 C   0  0  0  0  0  0  0  0  0  0  0  0
    4.5526   -7.9264   18.2207 C   0  0  0  0  0  0  0  0  0  0  0  0
    4.9174   -6.8483   17.1973 C   0  0  0  0  0  0  0  0  0  0  0  0
    3.2293   -8.5536   20.4217 C   0  0  0  0  0  0  0  0  0  0  0  0
    3.7325   -8.7270   21.4969 O   0  0  0  0  0  0  0  0  0  0  0  0
    2.0839   -9.2158   19.7848 N   0  0  0  0  0  0  0  0  0  0  0  0
    1.1065  -10.2630   20.3207 C   0  0  0  0  0  0  0  0  0  0  0  0
   -0.0810  -10.1145   21.3690 C   0  0  0  0  0  0  0  0  0  0  0  0
   -0.5654  -11.2946   21.5195 N   0  0  0  0  0  0  0  0  0  0  0  0
   -1.8515  -11.7461   22.1021 C   0  0  0  0  0  0  0  0  0  0  0  0
   -2.8079  -11.1233   22.4635 O   0  0  0  0  0  0  0  0  0  0  0  0
   -1.9676  -13.3288   22.2556 C   0  0  0  0  0  0  0  0  0  0  0  0
   -2.0035  -13.9815   20.8793 C   0  0  0  0  0  0  0  0  0  0  0  0
   -3.2746  -13.6725   23.0942 C   0  0  0  0  0  0  0  0  0  0  0  0
   -3.5507  -15.0033   23.6609 N   0  0  0  0  0  0  0  0  0  0  0  0
   -4.1039  -16.0855   23.0169 C   0  0  0  0  0  0  0  0  0  0  0  0
   -4.4514  -16.9848   24.0055 C   0  0  0  0  0  0  0  0  0  0  0  0
   -4.1747  -16.4720   25.2429 N   0  0  0  0  0  0  0  0  0  0  0  0
   -3.6559  -15.2853   25.0087 C   0  0  0  0  0  0  0  0  0  0  0  0
    0.0158   -9.3938   20.8893 C   0  0  0  0  0  0  0  0  0  0  0  0
    6.2759   -7.4234   21.0475 H   0  0  0  0  0  0  0  0  0  0  0  0
    6.5675   -5.6784   20.9622 H   0  0  0  0  0  0  0  0  0  0  0  0
    6.6607   -6.6631   19.5008 H   0  0  0  0  0  0  0  0  0  0  0  0
    4.1627   -6.0915   21.1808 H   0  0  0  0  0  0  0  0  0  0  0  0
    4.5333   -5.3524   19.6383 H   0  0  0  0  0  0  0  0  0  0  0  0
    2.9034   -6.8761   19.1145 H   0  0  0  0  0  0  0  0  0  0  0  0
    3.9131   -8.6632   17.7192 H   0  0  0  0  0  0  0  0  0  0  0  0
    5.4498   -8.4771   18.5244 H   0  0  0  0  0  0  0  0  0  0  0  0
    5.7264   -6.2126   17.5549 H   0  0  0  0  0  0  0  0  0  0  0  0
    4.0525   -6.2172   16.9700 H   0  0  0  0  0  0  0  0  0  0  0  0
    5.2426   -7.3143   16.2625 H   0  0  0  0  0  0  0  0  0  0  0  0
    1.8839   -8.7567   18.9007 H   0  0  0  0  0  0  0  0  0  0  0  0
    0.8217  -10.9102   19.4811 H   0  0  0  0  0  0  0  0  0  0  0  0
    0.7838  -10.3208   22.2800 H   0  0  0  0  0  0  0  0  0  0  0  0
   -0.5271   -9.6128   22.5052 H   0  0  0  0  0  0  0  0  0  0  0  0
   -1.0993  -13.7047   22.7935 H   0  0  0  0  0  0  0  0  0  0  0  0
   -2.0532  -15.0713   20.9628 H   0  0  0  0  0  0  0  0  0  0  0  0
   -1.1068  -13.7338   20.3019 H   0  0  0  0  0  0  0  0  0  0  0  0
   -2.8695  -13.6392   20.3027 H   0  0  0  0  0  0  0  0  0  0  0  0
   -3.3069  -12.9956   23.9590 H   0  0  0  0  0  0  0  0  0  0  0  0
   -4.1591  -13.4310   22.4886 H   0  0  0  0  0  0  0  0  0  0  0  0
   -4.2073  -16.1268   21.9420 H   0  0  0  0  0  0  0  0  0  0  0  0
   -4.8939  -17.9654   23.8854 H   0  0  0  0  0  0  0  0  0  0  0  0
   -3.3521  -14.5789   25.7691 H   0  0  0  0  0  0  0  0  0  0  0  0
   -0.7306   -8.9998   20.0568 H   0  0  0  0  0  0  0  0  0  0  0  0
    0.3521   -8.4081   21.5342 H   0  0  0  0  0  0  0  0  0  0  0  0
  1  2  1  0
  2  3  1  0
  3  4  1  0
  4  5  1  0
  3  6  1  0
  6  7  2  0
  6  8  1  0
  8  9  1  0
  9 10  1  0
 10 11  1  0
 11 12  1  0
 12 13  2  0
 12 14  1  0
 14 15  1  0
 14 16  1  0
 16 17  1  0
 17 18  1  0
 18 19  2  0
 19 20  1  0
 20 21  2  0
 11 22  1  0
 22  9  1  0
 21 17  1  0
  1 23  1  0
  1 24  1  0
  1 25  1  0
  2 26  1  0
  2 27  1  0
  3 28  1  0
  4 29  1  0
  4 30  1  0
  5 31  1  0
  5 32  1  0
  5 33  1  0
  8 34  1  0
  9 35  1  0
 10 36  1  0
 10 37  1  0
 14 38  1  0
 15 39  1  0
 15 40  1  0
 15 41  1  0
 16 42  1  0
 16 43  1  0
 18 44  1  0
 19 45  1  0
 21 46  1  0
 22 47  1  0
 22 48  1  0
M  END
>  <Energy>  (1239) 
672.09979832731835

>  <compound_id>  (1239) 
44122

>  <target_id>  (1239) 
1

>  <reference_id>  (1239) 
115

>  <inspiration_ids>  (1239) 
[115, 27]

>  <energy_score>  (1239) 
630.1498054081279

>  <distance_score>  (1239) 
14.296827789251564

>  <path>  (1239) 
/opt/xchem-fragalysis-2/maxwin/BulkDock/SCRATCH/511016/C44122-P115/C44122-P115.minimised.mol

>  <scratch_subdir>  (1239) 
/opt/xchem-fragalysis-2/maxwin/BulkDock/SCRATCH/511016/C44122-P115

>  <fragmenstein_runtime>  (1239) 
37.962321043014526

>  <fragmenstein_outcome>  (1239) 
too moved

>  <fragmenstein_mode>  (1239) 
expansion

>  <fragmenstein_error>  (1239) 


$$$$
C44122-P27
     RDKit          3D

 48 49  0  0  0  0  0  0  0  0999 V2000
   14.2598   -5.8408   20.9981 C   0  0  0  0  0  0  0  0  0  0  0  0
   12.7929   -6.2683   21.1199 C   0  0  0  0  0  0  0  0  0  0  0  0
   11.6243   -5.5455   20.1818 C   0  0  0  0  0  0  0  0  0  0  0  0
   12.5588   -4.8702   18.8903 C   0  0  0  0  0  0  0  0  0  0  0  0
   13.3467   -3.5858   19.1734 C   0  0  0  0  0  0  0  0  0  0  0  0
    9.7348   -6.2904   20.2506 C   0  0  0  0  0  0  0  0  0  0  0  0
    9.7313   -7.5178   20.3713 O   0  0  0  0  0  0  0  0  0  0  0  0
    8.6050   -5.3265   20.2608 N   0  0  0  0  0  0  0  0  0  0  0  0
    7.0492   -5.5387   20.5392 C   0  0  0  0  0  0  0  0  0  0  0  0
    6.3659   -6.4419   19.5809 C   0  0  0  0  0  0  0  0  0  0  0  0
    5.2342   -6.9184   21.2463 N   0  0  0  0  0  0  0  0  0  0  0  0
    3.6336   -7.2295   21.1674 C   0  0  0  0  0  0  0  0  0  0  0  0
    2.9071   -7.3538   20.2711 O   0  0  0  0  0  0  0  0  0  0  0  0
    3.0370   -7.4816   22.6243 C   0  0  0  0  0  0  0  0  0  0  0  0
    4.1082   -7.6931   23.6803 C   0  0  0  0  0  0  0  0  0  0  0  0
    1.9982   -8.6936   22.5223 C   0  0  0  0  0  0  0  0  0  0  0  0
    0.9459   -9.0165   23.5044 N   0  0  0  0  0  0  0  0  0  0  0  0
    0.9293   -8.9064   24.8693 C   0  0  0  0  0  0  0  0  0  0  0  0
   -0.2652   -9.4496   25.2950 C   0  0  0  0  0  0  0  0  0  0  0  0
   -0.9546   -9.9655   24.2340 N   0  0  0  0  0  0  0  0  0  0  0  0
   -0.2515   -9.6284   23.1706 C   0  0  0  0  0  0  0  0  0  0  0  0
    6.2091   -6.8286   20.3663 C   0  0  0  0  0  0  0  0  0  0  0  0
   14.8491   -6.4069   21.7302 H   0  0  0  0  0  0  0  0  0  0  0  0
   14.3890   -4.7876   21.2595 H   0  0  0  0  0  0  0  0  0  0  0  0
   14.7146   -6.0480   20.0293 H   0  0  0  0  0  0  0  0  0  0  0  0
   12.6912   -7.3543   21.0864 H   0  0  0  0  0  0  0  0  0  0  0  0
   12.6162   -6.0231   22.1787 H   0  0  0  0  0  0  0  0  0  0  0  0
   11.6309   -4.6619   20.8030 H   0  0  0  0  0  0  0  0  0  0  0  0
   13.3167   -5.5766   18.5878 H   0  0  0  0  0  0  0  0  0  0  0  0
   11.9791   -4.6720   17.9778 H   0  0  0  0  0  0  0  0  0  0  0  0
   14.4244   -3.7801   19.1813 H   0  0  0  0  0  0  0  0  0  0  0  0
   13.0800   -3.1313   20.1284 H   0  0  0  0  0  0  0  0  0  0  0  0
   13.1868   -2.8656   18.3651 H   0  0  0  0  0  0  0  0  0  0  0  0
    8.9769   -4.3891   20.2224 H   0  0  0  0  0  0  0  0  0  0  0  0
    6.5226   -4.6609   20.9120 H   0  0  0  0  0  0  0  0  0  0  0  0
    6.6964   -7.1709   18.6974 H   0  0  0  0  0  0  0  0  0  0  0  0
    5.6150   -5.8070   18.9217 H   0  0  0  0  0  0  0  0  0  0  0  0
    2.4707   -6.5761   22.8768 H   0  0  0  0  0  0  0  0  0  0  0  0
    4.7548   -6.8127   23.7652 H   0  0  0  0  0  0  0  0  0  0  0  0
    4.7449   -8.5481   23.4334 H   0  0  0  0  0  0  0  0  0  0  0  0
    3.6735   -7.8492   24.6681 H   0  0  0  0  0  0  0  0  0  0  0  0
    1.4319   -8.5663   21.5906 H   0  0  0  0  0  0  0  0  0  0  0  0
    2.5656   -9.6253   22.3986 H   0  0  0  0  0  0  0  0  0  0  0  0
    1.7226   -8.4375   25.4305 H   0  0  0  0  0  0  0  0  0  0  0  0
   -0.6451   -9.5059   26.3072 H   0  0  0  0  0  0  0  0  0  0  0  0
   -0.5309   -9.8329   22.1434 H   0  0  0  0  0  0  0  0  0  0  0  0
    6.4092   -8.0939   20.1555 H   0  0  0  0  0  0  0  0  0  0  0  0
    6.9972   -7.3032   21.1836 H   0  0  0  0  0  0  0  0  0  0  0  0
  1  2  1  0
  2  3  1  0
  3  4  1  0
  4  5  1  0
  3  6  1  0
  6  7  2  0
  6  8  1  0
  8  9  1  0
  9 10  1  0
 10 11  1  0
 11 12  1  0
 12 13  2  0
 12 14  1  0
 14 15  1  0
 14 16  1  0
 16 17  1  0
 17 18  1  0
 18 19  2  0
 19 20  1  0
 20 21  2  0
 11 22  1  0
 22  9  1  0
 21 17  1  0
  1 23  1  0
  1 24  1  0
  1 25  1  0
  2 26  1  0
  2 27  1  0
  3 28  1  0
  4 29  1  0
  4 30  1  0
  5 31  1  0
  5 32  1  0
  5 33  1  0
  8 34  1  0
  9 35  1  0
 10 36  1  0
 10 37  1  0
 14 38  1  0
 15 39  1  0
 15 40  1  0
 15 41  1  0
 16 42  1  0
 16 43  1  0
 18 44  1  0
 19 45  1  0
 21 46  1  0
 22 47  1  0
 22 48  1  0
M  END
>  <Energy>  (1240) 
733.12992275284569

>  <compound_id>  (1240) 
44122

>  <target_id>  (1240) 
1

>  <reference_id>  (1240) 
27

>  <inspiration_ids>  (1240) 
[115, 27]

>  <energy_score>  (1240) 
691.1799298336683

>  <distance_score>  (1240) 
13.321137811992832

>  <path>  (1240) 
/opt/xchem-fragalysis-2/maxwin/BulkDock/SCRATCH/511016/C44122-P27/C44122-P27.minimised.mol

>  <scratch_subdir>  (1240) 
/opt/xchem-fragalysis-2/maxwin/BulkDock/SCRATCH/511016/C44122-P27

>  <fragmenstein_runtime>  (1240) 
37.886707067489624

>  <fragmenstein_outcome>  (1240) 
too moved

>  <fragmenstein_mode>  (1240) 
expansion

>  <fragmenstein_error>  (1240) 


$$$$
C44124-P115
     RDKit          3D

 51 52  0  0  0  0  0  0  0  0999 V2000
    5.3466   -2.9662   22.0790 C   0  0  0  0  0  0  0  0  0  0  0  0
    5.6798   -3.9951   23.1596 C   0  0  0  0  0  0  0  0  0  0  0  0
    4.9769   -5.3713   22.9559 C   0  0  0  0  0  0  0  0  0  0  0  0
    5.9243   -6.3466   22.1980 C   0  0  0  0  0  0  0  0  0  0  0  0
    6.3902   -5.8959   20.8146 C   0  0  0  0  0  0  0  0  0  0  0  0
    4.5115   -5.9903   24.3601 C   0  0  0  0  0  0  0  0  0  0  0  0
    5.3192   -6.5651   25.0341 O   0  0  0  0  0  0  0  0  0  0  0  0
    3.1243   -5.6479   24.6308 N   0  0  0  0  0  0  0  0  0  0  0  0
    2.3084   -5.8105   25.8451 C   0  0  0  0  0  0  0  0  0  0  0  0
    2.9321   -5.2611   27.0088 C   0  0  0  0  0  0  0  0  0  0  0  0
    2.8735   -6.8293   27.3333 C   0  0  0  0  0  0  0  0  0  0  0  0
    1.1684   -7.6526   27.4627 N   0  0  0  0  0  0  0  0  0  0  0  0
    0.6645   -8.3648   28.8964 C   0  0  0  0  0  0  0  0  0  0  0  0
    1.1986   -8.5753   29.8897 O   0  0  0  0  0  0  0  0  0  0  0  0
   -0.8500   -8.8345   28.6851 C   0  0  0  0  0  0  0  0  0  0  0  0
   -1.7088   -7.6414   28.2769 C   0  0  0  0  0  0  0  0  0  0  0  0
   -1.4251   -9.5172   30.0114 C   0  0  0  0  0  0  0  0  0  0  0  0
   -2.5841  -10.4372   30.0419 N   0  0  0  0  0  0  0  0  0  0  0  0
   -2.8175  -11.3648   31.0470 C   0  0  0  0  0  0  0  0  0  0  0  0
   -3.9816  -12.0178   30.7146 C   0  0  0  0  0  0  0  0  0  0  0  0
   -4.5062  -11.4840   29.5715 N   0  0  0  0  0  0  0  0  0  0  0  0
   -3.6606  -10.5409   29.2026 C   0  0  0  0  0  0  0  0  0  0  0  0
    2.3868   -7.1872   26.9213 C   0  0  0  0  0  0  0  0  0  0  0  0
    4.3006   -2.6549   22.1754 H   0  0  0  0  0  0  0  0  0  0  0  0
    5.9660   -2.0726   22.1836 H   0  0  0  0  0  0  0  0  0  0  0  0
    5.4676   -3.3676   21.0747 H   0  0  0  0  0  0  0  0  0  0  0  0
    6.7650   -4.1333   23.2124 H   0  0  0  0  0  0  0  0  0  0  0  0
    5.3817   -3.5707   24.1263 H   0  0  0  0  0  0  0  0  0  0  0  0
    4.0801   -5.2375   22.3377 H   0  0  0  0  0  0  0  0  0  0  0  0
    5.4004   -7.3049   22.0878 H   0  0  0  0  0  0  0  0  0  0  0  0
    6.8040   -6.5594   22.8172 H   0  0  0  0  0  0  0  0  0  0  0  0
    6.9169   -6.7165   20.3178 H   0  0  0  0  0  0  0  0  0  0  0  0
    5.5428   -5.6087   20.1858 H   0  0  0  0  0  0  0  0  0  0  0  0
    7.0843   -5.0591   20.8936 H   0  0  0  0  0  0  0  0  0  0  0  0
    2.7665   -5.0857   23.8657 H   0  0  0  0  0  0  0  0  0  0  0  0
    1.2777   -5.4797   25.6686 H   0  0  0  0  0  0  0  0  0  0  0  0
    2.2854   -4.6688   27.6624 H   0  0  0  0  0  0  0  0  0  0  0  0
    3.9553   -4.8880   26.9346 H   0  0  0  0  0  0  0  0  0  0  0  0
    2.8899   -6.5914   28.5548 H   0  0  0  0  0  0  0  0  0  0  0  0
    3.9866   -7.3700   27.6328 H   0  0  0  0  0  0  0  0  0  0  0  0
   -0.8380   -9.5831   27.8933 H   0  0  0  0  0  0  0  0  0  0  0  0
   -1.4131   -7.2572   27.2954 H   0  0  0  0  0  0  0  0  0  0  0  0
   -1.6041   -6.8208   28.9951 H   0  0  0  0  0  0  0  0  0  0  0  0
   -2.7675   -7.9031   28.2153 H   0  0  0  0  0  0  0  0  0  0  0  0
   -0.6149  -10.1038   30.4630 H   0  0  0  0  0  0  0  0  0  0  0  0
   -1.6771   -8.7287   30.7329 H   0  0  0  0  0  0  0  0  0  0  0  0
   -2.1278  -11.4942   31.8694 H   0  0  0  0  0  0  0  0  0  0  0  0
   -4.4666  -12.8291   31.2404 H   0  0  0  0  0  0  0  0  0  0  0  0
   -3.7860   -9.9175   28.3291 H   0  0  0  0  0  0  0  0  0  0  0  0
    2.9946   -8.3003   26.4884 H   0  0  0  0  0  0  0  0  0  0  0  0
    1.8546   -7.5951   25.9150 H   0  0  0  0  0  0  0  0  0  0  0  0
  1  2  1  0
  2  3  1  0
  3  4  1  0
  4  5  1  0
  3  6  1  0
  6  7  2  0
  6  8  1  0
  8  9  1  0
  9 10  1  0
 10 11  1  0
 11 12  1  0
 12 13  1  0
 13 14  2  0
 13 15  1  0
 15 16  1  0
 15 17  1  0
 17 18  1  0
 18 19  1  0
 19 20  2  0
 20 21  1  0
 21 22  2  0
 12 23  1  0
 23  9  1  0
 22 18  1  0
  1 24  1  0
  1 25  1  0
  1 26  1  0
  2 27  1  0
  2 28  1  0
  3 29  1  0
  4 30  1  0
  4 31  1  0
  5 32  1  0
  5 33  1  0
  5 34  1  0
  8 35  1  0
  9 36  1  0
 10 37  1  0
 10 38  1  0
 11 39  1  0
 11 40  1  0
 15 41  1  0
 16 42  1  0
 16 43  1  0
 16 44  1  0
 17 45  1  0
 17 46  1  0
 19 47  1  0
 20 48  1  0
 22 49  1  0
 23 50  1  0
 23 51  1  0
M  END
>  <Energy>  (1241) 
717.44950181162255

>  <compound_id>  (1241) 
44124

>  <target_id>  (1241) 
1

>  <reference_id>  (1241) 
115

>  <inspiration_ids>  (1241) 
[115, 27]

>  <energy_score>  (1241) 
696.8483605890035

>  <distance_score>  (1241) 
14.458982087584078

>  <path>  (1241) 
/opt/xchem-fragalysis-2/maxwin/BulkDock/SCRATCH/511016/C44124-P115/C44124-P115.minimised.mol

>  <scratch_subdir>  (1241) 
/opt/xchem-fragalysis-2/maxwin/BulkDock/SCRATCH/511016/C44124-P115

>  <fragmenstein_runtime>  (1241) 
48.03189253807068

>  <fragmenstein_outcome>  (1241) 
too moved

>  <fragmenstein_mode>  (1241) 
expansion

>  <fragmenstein_error>  (1241) 


$$$$
C44124-P27
     RDKit          3D

 51 52  0  0  0  0  0  0  0  0999 V2000
    9.8380   -8.5027   24.1021 C   0  0  0  0  0  0  0  0  0  0  0  0
    9.2919   -9.8960   24.3176 C   0  0  0  0  0  0  0  0  0  0  0  0
    7.7350  -10.0342   24.3236 C   0  0  0  0  0  0  0  0  0  0  0  0
    7.0878   -9.4167   23.0454 C   0  0  0  0  0  0  0  0  0  0  0  0
    7.7069   -9.7689   21.6894 C   0  0  0  0  0  0  0  0  0  0  0  0
    7.3713  -11.5546   24.6028 C   0  0  0  0  0  0  0  0  0  0  0  0
    8.1289  -12.3588   24.1308 O   0  0  0  0  0  0  0  0  0  0  0  0
    6.2059  -11.7384   25.4717 N   0  0  0  0  0  0  0  0  0  0  0  0
    5.5254  -13.0075   25.9707 C   0  0  0  0  0  0  0  0  0  0  0  0
    5.9821  -12.9402   27.2985 C   0  0  0  0  0  0  0  0  0  0  0  0
    4.4289  -14.1988   27.5306 C   0  0  0  0  0  0  0  0  0  0  0  0
    3.5309  -15.2342   27.1324 N   0  0  0  0  0  0  0  0  0  0  0  0
    2.0702  -16.0411   28.0413 C   0  0  0  0  0  0  0  0  0  0  0  0
    1.6751  -15.6312   29.0685 O   0  0  0  0  0  0  0  0  0  0  0  0
    0.8557  -17.4739   27.4295 C   0  0  0  0  0  0  0  0  0  0  0  0
    2.4716  -17.8281   26.6282 C   0  0  0  0  0  0  0  0  0  0  0  0
   -1.2811  -17.6930   27.2043 C   0  0  0  0  0  0  0  0  0  0  0  0
   -3.2233  -17.4069   27.6243 N   0  0  0  0  0  0  0  0  0  0  0  0
   -4.9587  -18.2391   27.7593 C   0  0  0  0  0  0  0  0  0  0  0  0
   -5.8405  -17.6856   28.9299 C   0  0  0  0  0  0  0  0  0  0  0  0
   -5.0242  -16.4901   29.4999 N   0  0  0  0  0  0  0  0  0  0  0  0
   -3.7398  -16.2549   28.7239 C   0  0  0  0  0  0  0  0  0  0  0  0
    4.4330  -13.6631   27.4812 C   0  0  0  0  0  0  0  0  0  0  0  0
    9.2742   -7.7713   24.6870 H   0  0  0  0  0  0  0  0  0  0  0  0
   10.8894   -8.4539   24.4028 H   0  0  0  0  0  0  0  0  0  0  0  0
    9.7924   -8.2730   23.0424 H   0  0  0  0  0  0  0  0  0  0  0  0
    9.7339  -10.5626   23.5665 H   0  0  0  0  0  0  0  0  0  0  0  0
    9.6583  -10.2603   25.2869 H   0  0  0  0  0  0  0  0  0  0  0  0
    7.3629   -9.4627   25.1847 H   0  0  0  0  0  0  0  0  0  0  0  0
    7.0996   -8.3242   23.1452 H   0  0  0  0  0  0  0  0  0  0  0  0
    6.0315   -9.7125   23.0238 H   0  0  0  0  0  0  0  0  0  0  0  0
    8.7287   -9.4031   21.5805 H   0  0  0  0  0  0  0  0  0  0  0  0
    7.7145  -10.8536   21.5437 H   0  0  0  0  0  0  0  0  0  0  0  0
    7.1117   -9.3255   20.8843 H   0  0  0  0  0  0  0  0  0  0  0  0
    5.8502  -10.8318   25.7439 H   0  0  0  0  0  0  0  0  0  0  0  0
    6.0930  -13.8162   25.4793 H   0  0  0  0  0  0  0  0  0  0  0  0
    5.9001  -11.9508   27.8002 H   0  0  0  0  0  0  0  0  0  0  0  0
    7.0522  -13.2250   27.2262 H   0  0  0  0  0  0  0  0  0  0  0  0
    4.5214  -14.7338   26.2068 H   0  0  0  0  0  0  0  0  0  0  0  0
    4.6124  -14.9313   28.5385 H   0  0  0  0  0  0  0  0  0  0  0  0
    0.7810  -17.7806   28.4407 H   0  0  0  0  0  0  0  0  0  0  0  0
    3.0680  -18.6882   26.8846 H   0  0  0  0  0  0  0  0  0  0  0  0
    2.6074  -17.8792   25.5348 H   0  0  0  0  0  0  0  0  0  0  0  0
    3.2119  -17.1668   26.9781 H   0  0  0  0  0  0  0  0  0  0  0  0
   -1.4438  -16.6578   27.4972 H   0  0  0  0  0  0  0  0  0  0  0  0
   -1.5348  -17.9797   26.1856 H   0  0  0  0  0  0  0  0  0  0  0  0
   -5.2743  -19.1033   27.1614 H   0  0  0  0  0  0  0  0  0  0  0  0
   -6.8088  -17.9582   29.2827 H   0  0  0  0  0  0  0  0  0  0  0  0
   -3.0439  -15.4113   28.8799 H   0  0  0  0  0  0  0  0  0  0  0  0
    4.5957  -12.7980   28.5790 H   0  0  0  0  0  0  0  0  0  0  0  0
    2.9966  -13.4711   27.2999 H   0  0  0  0  0  0  0  0  0  0  0  0
  1  2  1  0
  2  3  1  0
  3  4  1  0
  4  5  1  0
  3  6  1  0
  6  7  2  0
  6  8  1  0
  8  9  1  0
  9 10  1  0
 10 11  1  0
 11 12  1  0
 12 13  1  0
 13 14  2  0
 13 15  1  0
 15 16  1  0
 15 17  1  0
 17 18  1  0
 18 19  1  0
 19 20  2  0
 20 21  1  0
 21 22  2  0
 12 23  1  0
 23  9  1  0
 22 18  1  0
  1 24  1  0
  1 25  1  0
  1 26  1  0
  2 27  1  0
  2 28  1  0
  3 29  1  0
  4 30  1  0
  4 31  1  0
  5 32  1  0
  5 33  1  0
  5 34  1  0
  8 35  1  0
  9 36  1  0
 10 37  1  0
 10 38  1  0
 11 39  1  0
 11 40  1  0
 15 41  1  0
 16 42  1  0
 16 43  1  0
 16 44  1  0
 17 45  1  0
 17 46  1  0
 19 47  1  0
 20 48  1  0
 22 49  1  0
 23 50  1  0
 23 51  1  0
M  END
>  <Energy>  (1242) 
1766.8697105370502

>  <compound_id>  (1242) 
44124

>  <target_id>  (1242) 
1

>  <reference_id>  (1242) 
27

>  <inspiration_ids>  (1242) 
[115, 27]

>  <energy_score>  (1242) 
1746.2685693144153

>  <distance_score>  (1242) 
13.722818371044617

>  <path>  (1242) 
/opt/xchem-fragalysis-2/maxwin/BulkDock/SCRATCH/511016/C44124-P27/C44124-P27.minimised.mol

>  <scratch_subdir>  (1242) 
/opt/xchem-fragalysis-2/maxwin/BulkDock/SCRATCH/511016/C44124-P27

>  <fragmenstein_runtime>  (1242) 
42.429484605789185

>  <fragmenstein_outcome>  (1242) 
too moved

>  <fragmenstein_mode>  (1242) 
expansion

>  <fragmenstein_error>  (1242) 


$$$$
C44141-P115
     RDKit          3D

 52 53  0  0  0  0  0  0  0  0999 V2000
    5.7339   -5.1183   20.6308 C   0  0  0  0  0  0  0  0  0  0  0  0
    4.3950   -5.5225   20.0321 C   0  0  0  0  0  0  0  0  0  0  0  0
    4.3676   -6.8019   19.1346 C   0  0  0  0  0  0  0  0  0  0  0  0
    5.2359   -6.5456   17.8727 C   0  0  0  0  0  0  0  0  0  0  0  0
    5.4382   -7.7616   16.9890 C   0  0  0  0  0  0  0  0  0  0  0  0
    2.8553   -7.0494   18.7852 C   0  0  0  0  0  0  0  0  0  0  0  0
    2.4348   -6.5804   17.7655 O   0  0  0  0  0  0  0  0  0  0  0  0
    2.1741   -7.7571   19.8507 N   0  0  0  0  0  0  0  0  0  0  0  0
    0.7535   -8.0330   20.0621 C   0  0  0  0  0  0  0  0  0  0  0  0
    0.3171   -7.3448   21.3241 C   0  0  0  0  0  0  0  0  0  0  0  0
   -1.1746   -7.5693   21.4020 C   0  0  0  0  0  0  0  0  0  0  0  0
   -1.6522   -8.7135   20.4709 C   0  0  0  0  0  0  0  0  0  0  0  0
   -1.1324  -10.0648   20.8402 N   0  0  0  0  0  0  0  0  0  0  0  0
   -2.0965  -11.1001   20.4474 C   0  0  0  0  0  0  0  0  0  0  0  0
   -2.1939  -11.7293   19.4223 O   0  0  0  0  0  0  0  0  0  0  0  0
   -3.1758  -11.3847   21.5691 C   0  0  0  0  0  0  0  0  0  0  0  0
   -3.3116  -13.2360   21.9812 S   0  0  0  0  0  0  0  0  0  0  0  0
   -4.6328  -13.2685   23.2768 C   0  0  0  0  0  0  0  0  0  0  0  0
   -4.9407  -14.6259   23.9305 C   0  0  0  0  0  0  0  0  0  0  0  0
   -4.9781  -14.8875   25.2316 N   0  0  0  0  0  0  0  0  0  0  0  0
   -5.4414  -16.1777   25.3676 C   0  0  0  0  0  0  0  0  0  0  0  0
   -5.7147  -16.7171   24.1375 C   0  0  0  0  0  0  0  0  0  0  0  0
   -5.3768  -15.7378   23.2358 N   0  0  0  0  0  0  0  0  0  0  0  0
    0.1840   -9.5132   20.0828 C   0  0  0  0  0  0  0  0  0  0  0  0
    6.0829   -5.8992   21.3105 H   0  0  0  0  0  0  0  0  0  0  0  0
    6.4877   -4.9363   19.8735 H   0  0  0  0  0  0  0  0  0  0  0  0
    5.6207   -4.1993   21.2151 H   0  0  0  0  0  0  0  0  0  0  0  0
    3.9874   -4.6764   19.4646 H   0  0  0  0  0  0  0  0  0  0  0  0
    3.6971   -5.6684   20.8674 H   0  0  0  0  0  0  0  0  0  0  0  0
    4.7651   -7.6606   19.6875 H   0  0  0  0  0  0  0  0  0  0  0  0
    6.2261   -6.2088   18.1759 H   0  0  0  0  0  0  0  0  0  0  0  0
    4.7831   -5.7565   17.2634 H   0  0  0  0  0  0  0  0  0  0  0  0
    4.4836   -8.1445   16.6157 H   0  0  0  0  0  0  0  0  0  0  0  0
    6.0561   -7.5051   16.1232 H   0  0  0  0  0  0  0  0  0  0  0  0
    5.9340   -8.5664   17.5406 H   0  0  0  0  0  0  0  0  0  0  0  0
    2.8605   -8.0843   20.5231 H   0  0  0  0  0  0  0  0  0  0  0  0
    0.2722   -7.5256   19.2137 H   0  0  0  0  0  0  0  0  0  0  0  0
    0.8168   -7.7727   22.1995 H   0  0  0  0  0  0  0  0  0  0  0  0
    0.5517   -6.2741   21.3194 H   0  0  0  0  0  0  0  0  0  0  0  0
   -1.4650   -7.7772   22.4386 H   0  0  0  0  0  0  0  0  0  0  0  0
   -1.6988   -6.6512   21.1092 H   0  0  0  0  0  0  0  0  0  0  0  0
   -1.6586   -8.4985   19.3881 H   0  0  0  0  0  0  0  0  0  0  0  0
   -2.7343   -8.7679   20.6721 H   0  0  0  0  0  0  0  0  0  0  0  0
   -2.9654  -10.8045   22.4686 H   0  0  0  0  0  0  0  0  0  0  0  0
   -4.1444  -11.0632   21.1729 H   0  0  0  0  0  0  0  0  0  0  0  0
   -5.5561  -12.8903   22.8251 H   0  0  0  0  0  0  0  0  0  0  0  0
   -4.3323  -12.5741   24.0687 H   0  0  0  0  0  0  0  0  0  0  0  0
   -5.5507  -16.6376   26.3409 H   0  0  0  0  0  0  0  0  0  0  0  0
   -6.0821  -17.6841   23.8251 H   0  0  0  0  0  0  0  0  0  0  0  0
   -5.4315  -15.8073   22.2284 H   0  0  0  0  0  0  0  0  0  0  0  0
    0.9689  -10.1275   20.5398 H   0  0  0  0  0  0  0  0  0  0  0  0
    0.1169   -9.8893   19.0501 H   0  0  0  0  0  0  0  0  0  0  0  0
  1  2  1  0
  2  3  1  0
  3  4  1  0
  4  5  1  0
  3  6  1  0
  6  7  2  0
  6  8  1  0
  8  9  1  0
  9 10  1  0
 10 11  1  0
 11 12  1  0
 12 13  1  0
 13 14  1  0
 14 15  2  0
 14 16  1  0
 16 17  1  0
 17 18  1  0
 18 19  1  0
 19 20  2  0
 20 21  1  0
 21 22  2  0
 22 23  1  0
 13 24  1  0
 24  9  1  0
 23 19  1  0
  1 25  1  0
  1 26  1  0
  1 27  1  0
  2 28  1  0
  2 29  1  0
  3 30  1  0
  4 31  1  0
  4 32  1  0
  5 33  1  0
  5 34  1  0
  5 35  1  0
  8 36  1  0
  9 37  1  0
 10 38  1  0
 10 39  1  0
 11 40  1  0
 11 41  1  0
 12 42  1  0
 12 43  1  0
 16 44  1  0
 16 45  1  0
 18 46  1  0
 18 47  1  0
 21 48  1  0
 22 49  1  0
 23 50  1  0
 24 51  1  0
 24 52  1  0
M  END
>  <Energy>  (1243) 
128.77555123307133

>  <compound_id>  (1243) 
44141

>  <target_id>  (1243) 
1

>  <reference_id>  (1243) 
115

>  <inspiration_ids>  (1243) 
[115, 27]

>  <energy_score>  (1243) 
62.44769985813673

>  <distance_score>  (1243) 
13.652901851970684

>  <path>  (1243) 
/opt/xchem-fragalysis-2/maxwin/BulkDock/SCRATCH/511016/C44141-P115/C44141-P115.minimised.mol

>  <scratch_subdir>  (1243) 
/opt/xchem-fragalysis-2/maxwin/BulkDock/SCRATCH/511016/C44141-P115

>  <fragmenstein_runtime>  (1243) 
30.481709241867065

>  <fragmenstein_outcome>  (1243) 
too moved

>  <fragmenstein_mode>  (1243) 
expansion

>  <fragmenstein_error>  (1243) 


$$$$
C44141-P27
     RDKit          3D

 52 53  0  0  0  0  0  0  0  0999 V2000
   10.3222   -9.6581   21.0684 C   0  0  0  0  0  0  0  0  0  0  0  0
   11.1833  -10.0664   22.2561 C   0  0  0  0  0  0  0  0  0  0  0  0
   11.1674   -9.0267   23.3800 C   0  0  0  0  0  0  0  0  0  0  0  0
   12.4320   -8.0935   23.3522 C   0  0  0  0  0  0  0  0  0  0  0  0
   13.0506   -7.7047   22.0121 C   0  0  0  0  0  0  0  0  0  0  0  0
   10.9598   -9.6626   24.8071 C   0  0  0  0  0  0  0  0  0  0  0  0
   11.8846   -9.6047   25.5663 O   0  0  0  0  0  0  0  0  0  0  0  0
    9.6010  -10.1495   25.0034 N   0  0  0  0  0  0  0  0  0  0  0  0
    8.9168  -10.6278   26.2139 C   0  0  0  0  0  0  0  0  0  0  0  0
    9.7137  -11.7043   26.8968 C   0  0  0  0  0  0  0  0  0  0  0  0
    8.6551  -12.6127   27.4536 C   0  0  0  0  0  0  0  0  0  0  0  0
    7.6808  -12.9253   26.2654 C   0  0  0  0  0  0  0  0  0  0  0  0
    6.3792  -12.2013   26.1442 N   0  0  0  0  0  0  0  0  0  0  0  0
    5.3418  -12.7606   27.1717 C   0  0  0  0  0  0  0  0  0  0  0  0
    5.1268  -12.3911   28.3075 O   0  0  0  0  0  0  0  0  0  0  0  0
    4.0287  -14.1444   26.6298 C   0  0  0  0  0  0  0  0  0  0  0  0
    1.7623  -13.5251   26.1933 S   0  0  0  0  0  0  0  0  0  0  0  0
    0.7013  -14.4057   27.1868 C   0  0  0  0  0  0  0  0  0  0  0  0
   -1.1760  -14.9286   27.9013 C   0  0  0  0  0  0  0  0  0  0  0  0
   -2.2966  -15.1406   27.1203 N   0  0  0  0  0  0  0  0  0  0  0  0
   -3.4728  -15.0417   27.8263 C   0  0  0  0  0  0  0  0  0  0  0  0
   -3.1949  -14.7007   29.1138 C   0  0  0  0  0  0  0  0  0  0  0  0
   -1.8028  -14.7692   29.2057 N   0  0  0  0  0  0  0  0  0  0  0  0
    7.3458  -10.9428   26.2287 C   0  0  0  0  0  0  0  0  0  0  0  0
   10.5147   -8.6366   20.7617 H   0  0  0  0  0  0  0  0  0  0  0  0
   10.5072  -10.3263   20.2218 H   0  0  0  0  0  0  0  0  0  0  0  0
    9.2612   -9.7464   21.3225 H   0  0  0  0  0  0  0  0  0  0  0  0
   12.2053  -10.2691   21.9199 H   0  0  0  0  0  0  0  0  0  0  0  0
   10.8066  -11.0294   22.6227 H   0  0  0  0  0  0  0  0  0  0  0  0
   10.2969   -8.3834   23.2546 H   0  0  0  0  0  0  0  0  0  0  0  0
   12.1827   -7.1793   23.9059 H   0  0  0  0  0  0  0  0  0  0  0  0
   13.2389   -8.5644   23.9282 H   0  0  0  0  0  0  0  0  0  0  0  0
   12.3149   -7.3731   21.2899 H   0  0  0  0  0  0  0  0  0  0  0  0
   13.7698   -6.8918   22.1585 H   0  0  0  0  0  0  0  0  0  0  0  0
   13.6042   -8.5457   21.5843 H   0  0  0  0  0  0  0  0  0  0  0  0
    9.0603   -9.9703   24.1640 H   0  0  0  0  0  0  0  0  0  0  0  0
    8.9998   -9.7393   26.8583 H   0  0  0  0  0  0  0  0  0  0  0  0
   10.3554  -11.3039   27.6889 H   0  0  0  0  0  0  0  0  0  0  0  0
   10.3570  -12.2502   26.1967 H   0  0  0  0  0  0  0  0  0  0  0  0
    9.1263  -13.5012   27.8719 H   0  0  0  0  0  0  0  0  0  0  0  0
    8.1371  -12.1286   28.2910 H   0  0  0  0  0  0  0  0  0  0  0  0
    8.1969  -12.8908   25.2903 H   0  0  0  0  0  0  0  0  0  0  0  0
    7.4377  -13.9543   26.3930 H   0  0  0  0  0  0  0  0  0  0  0  0
    4.3361  -14.4910   25.6352 H   0  0  0  0  0  0  0  0  0  0  0  0
    3.9042  -14.9170   27.3803 H   0  0  0  0  0  0  0  0  0  0  0  0
    1.5233  -15.0763   27.5955 H   0  0  0  0  0  0  0  0  0  0  0  0
    0.4267  -13.3837   26.9275 H   0  0  0  0  0  0  0  0  0  0  0  0
   -4.4325  -15.1746   27.3464 H   0  0  0  0  0  0  0  0  0  0  0  0
   -3.8010  -14.4756   29.9781 H   0  0  0  0  0  0  0  0  0  0  0  0
   -1.2864  -14.4714   30.0195 H   0  0  0  0  0  0  0  0  0  0  0  0
    6.9536  -10.4282   27.1212 H   0  0  0  0  0  0  0  0  0  0  0  0
    6.9917  -10.3438   25.3835 H   0  0  0  0  0  0  0  0  0  0  0  0
  1  2  1  0
  2  3  1  0
  3  4  1  0
  4  5  1  0
  3  6  1  0
  6  7  2  0
  6  8  1  0
  8  9  1  0
  9 10  1  0
 10 11  1  0
 11 12  1  0
 12 13  1  0
 13 14  1  0
 14 15  2  0
 14 16  1  0
 16 17  1  0
 17 18  1  0
 18 19  1  0
 19 20  2  0
 20 21  1  0
 21 22  2  0
 22 23  1  0
 13 24  1  0
 24  9  1  0
 23 19  1  0
  1 25  1  0
  1 26  1  0
  1 27  1  0
  2 28  1  0
  2 29  1  0
  3 30  1  0
  4 31  1  0
  4 32  1  0
  5 33  1  0
  5 34  1  0
  5 35  1  0
  8 36  1  0
  9 37  1  0
 10 38  1  0
 10 39  1  0
 11 40  1  0
 11 41  1  0
 12 42  1  0
 12 43  1  0
 16 44  1  0
 16 45  1  0
 18 46  1  0
 18 47  1  0
 21 48  1  0
 22 49  1  0
 23 50  1  0
 24 51  1  0
 24 52  1  0
M  END
>  <Energy>  (1244) 
458.30694778788109

>  <compound_id>  (1244) 
44141

>  <target_id>  (1244) 
1

>  <reference_id>  (1244) 
27

>  <inspiration_ids>  (1244) 
[115, 27]

>  <energy_score>  (1244) 
391.97909641292824

>  <distance_score>  (1244) 
12.274912969572199

>  <path>  (1244) 
/opt/xchem-fragalysis-2/maxwin/BulkDock/SCRATCH/511016/C44141-P27/C44141-P27.minimised.mol

>  <scratch_subdir>  (1244) 
/opt/xchem-fragalysis-2/maxwin/BulkDock/SCRATCH/511016/C44141-P27

>  <fragmenstein_runtime>  (1244) 
40.818922996520996

>  <fragmenstein_outcome>  (1244) 
too moved

>  <fragmenstein_mode>  (1244) 
expansion

>  <fragmenstein_error>  (1244) 


$$$$
C44125-P115
     RDKit          3D

 48 49  0  0  0  0  0  0  0  0999 V2000
   13.5463   -4.8471   22.4808 C   0  0  0  0  0  0  0  0  0  0  0  0
   13.1924   -5.8067   23.6249 C   0  0  0  0  0  0  0  0  0  0  0  0
   12.1676   -5.2732   24.6717 C   0  0  0  0  0  0  0  0  0  0  0  0
   12.7352   -4.1009   25.4754 C   0  0  0  0  0  0  0  0  0  0  0  0
   12.5096   -2.7360   24.8229 C   0  0  0  0  0  0  0  0  0  0  0  0
   11.4856   -6.4400   25.5395 C   0  0  0  0  0  0  0  0  0  0  0  0
   12.0397   -7.5028   25.5842 O   0  0  0  0  0  0  0  0  0  0  0  0
   10.2157   -6.0029   26.1211 N   0  0  0  0  0  0  0  0  0  0  0  0
    9.1650   -6.7646   26.8677 C   0  0  0  0  0  0  0  0  0  0  0  0
    8.1436   -7.4690   25.9774 C   0  0  0  0  0  0  0  0  0  0  0  0
    6.7685   -7.8678   26.7082 C   0  0  0  0  0  0  0  0  0  0  0  0
    6.1374   -7.2862   28.0158 N   0  0  0  0  0  0  0  0  0  0  0  0
    4.6911   -7.6272   28.0840 C   0  0  0  0  0  0  0  0  0  0  0  0
    3.7263   -7.0203   27.6856 O   0  0  0  0  0  0  0  0  0  0  0  0
    4.4160   -8.9485   28.9060 C   0  0  0  0  0  0  0  0  0  0  0  0
    2.9945   -9.3087   29.2707 N   0  0  0  0  0  0  0  0  0  0  0  0
    1.8397   -9.1829   28.5378 C   0  0  0  0  0  0  0  0  0  0  0  0
    0.8406   -9.8131   29.2481 C   0  0  0  0  0  0  0  0  0  0  0  0
    1.3228  -10.2770   30.4340 N   0  0  0  0  0  0  0  0  0  0  0  0
    2.5844   -9.8966   30.4528 C   0  0  0  0  0  0  0  0  0  0  0  0
    6.8219   -6.0430   27.5363 C   0  0  0  0  0  0  0  0  0  0  0  0
    8.3416   -5.8802   27.7897 C   0  0  0  0  0  0  0  0  0  0  0  0
   14.2262   -4.0630   22.8237 H   0  0  0  0  0  0  0  0  0  0  0  0
   14.0661   -5.3963   21.6886 H   0  0  0  0  0  0  0  0  0  0  0  0
   12.6552   -4.3895   22.0444 H   0  0  0  0  0  0  0  0  0  0  0  0
   12.7920   -6.7254   23.1793 H   0  0  0  0  0  0  0  0  0  0  0  0
   14.1145   -6.1083   24.1372 H   0  0  0  0  0  0  0  0  0  0  0  0
   11.3653   -4.8622   24.0870 H   0  0  0  0  0  0  0  0  0  0  0  0
   13.8089   -4.2447   25.6454 H   0  0  0  0  0  0  0  0  0  0  0  0
   12.2763   -4.0751   26.4710 H   0  0  0  0  0  0  0  0  0  0  0  0
   11.4441   -2.4992   24.7813 H   0  0  0  0  0  0  0  0  0  0  0  0
   12.9303   -2.6667   23.8225 H   0  0  0  0  0  0  0  0  0  0  0  0
   12.9866   -1.9598   25.4311 H   0  0  0  0  0  0  0  0  0  0  0  0
   10.0976   -5.0109   25.9511 H   0  0  0  0  0  0  0  0  0  0  0  0
    9.7001   -7.5202   27.4548 H   0  0  0  0  0  0  0  0  0  0  0  0
    8.5804   -8.3640   25.5176 H   0  0  0  0  0  0  0  0  0  0  0  0
    7.8880   -6.8112   25.1341 H   0  0  0  0  0  0  0  0  0  0  0  0
    6.8792   -8.9319   26.9655 H   0  0  0  0  0  0  0  0  0  0  0  0
    5.9787   -7.8656   25.9389 H   0  0  0  0  0  0  0  0  0  0  0  0
    4.7854   -9.8029   28.3319 H   0  0  0  0  0  0  0  0  0  0  0  0
    4.9538   -8.8793   29.8577 H   0  0  0  0  0  0  0  0  0  0  0  0
    1.8109   -8.6047   27.6301 H   0  0  0  0  0  0  0  0  0  0  0  0
   -0.2052   -9.9049   28.9884 H   0  0  0  0  0  0  0  0  0  0  0  0
    3.2621  -10.0377   31.2847 H   0  0  0  0  0  0  0  0  0  0  0  0
    6.4617   -5.6747   26.5586 H   0  0  0  0  0  0  0  0  0  0  0  0
    6.3679   -5.2913   28.2023 H   0  0  0  0  0  0  0  0  0  0  0  0
    8.5633   -6.1326   28.8341 H   0  0  0  0  0  0  0  0  0  0  0  0
    8.6057   -4.8235   27.6618 H   0  0  0  0  0  0  0  0  0  0  0  0
  1  2  1  0
  2  3  1  0
  3  4  1  0
  4  5  1  0
  3  6  1  0
  6  7  2  0
  6  8  1  0
  8  9  1  0
  9 10  1  0
 10 11  1  0
 11 12  1  0
 12 13  1  0
 13 14  2  0
 13 15  1  0
 15 16  1  0
 16 17  1  0
 17 18  2  0
 18 19  1  0
 19 20  2  0
 12 21  1  0
 21 22  1  0
 22  9  1  0
 20 16  1  0
  1 23  1  0
  1 24  1  0
  1 25  1  0
  2 26  1  0
  2 27  1  0
  3 28  1  0
  4 29  1  0
  4 30  1  0
  5 31  1  0
  5 32  1  0
  5 33  1  0
  8 34  1  0
  9 35  1  0
 10 36  1  0
 10 37  1  0
 11 38  1  0
 11 39  1  0
 15 40  1  0
 15 41  1  0
 17 42  1  0
 18 43  1  0
 20 44  1  0
 21 45  1  0
 21 46  1  0
 22 47  1  0
 22 48  1  0
M  END
>  <Energy>  (1245) 
98.580737385314009

>  <compound_id>  (1245) 
44125

>  <target_id>  (1245) 
1

>  <reference_id>  (1245) 
115

>  <inspiration_ids>  (1245) 
[115, 27]

>  <energy_score>  (1245) 
78.9241988069673

>  <distance_score>  (1245) 
14.094279629262967

>  <path>  (1245) 
/opt/xchem-fragalysis-2/maxwin/BulkDock/SCRATCH/511016/C44125-P115/C44125-P115.minimised.mol

>  <scratch_subdir>  (1245) 
/opt/xchem-fragalysis-2/maxwin/BulkDock/SCRATCH/511016/C44125-P115

>  <fragmenstein_runtime>  (1245) 
22.826598405838013

>  <fragmenstein_outcome>  (1245) 
too moved

>  <fragmenstein_mode>  (1245) 
expansion

>  <fragmenstein_error>  (1245) 


$$$$
C44125-P27
     RDKit          3D

 48 49  0  0  0  0  0  0  0  0999 V2000
   13.9834   -3.4055   18.2428 C   0  0  0  0  0  0  0  0  0  0  0  0
   13.9781   -4.6093   19.1751 C   0  0  0  0  0  0  0  0  0  0  0  0
   13.9012   -4.3850   20.7104 C   0  0  0  0  0  0  0  0  0  0  0  0
   15.0321   -3.4474   21.1621 C   0  0  0  0  0  0  0  0  0  0  0  0
   14.6990   -1.9653   21.0896 C   0  0  0  0  0  0  0  0  0  0  0  0
   14.0611   -5.7733   21.4573 C   0  0  0  0  0  0  0  0  0  0  0  0
   14.7664   -6.5994   20.9507 O   0  0  0  0  0  0  0  0  0  0  0  0
   13.3478   -5.7873   22.7156 N   0  0  0  0  0  0  0  0  0  0  0  0
   13.3404   -6.7685   23.8045 C   0  0  0  0  0  0  0  0  0  0  0  0
   12.9487   -8.2025   23.4342 C   0  0  0  0  0  0  0  0  0  0  0  0
   11.6348   -8.6249   24.1713 C   0  0  0  0  0  0  0  0  0  0  0  0
   11.4244   -8.9373   25.6605 N   0  0  0  0  0  0  0  0  0  0  0  0
    9.9958   -9.1482   25.9322 C   0  0  0  0  0  0  0  0  0  0  0  0
    9.1412   -8.3685   26.2645 O   0  0  0  0  0  0  0  0  0  0  0  0
    9.6869  -10.6656   25.8376 C   0  0  0  0  0  0  0  0  0  0  0  0
    8.3552  -11.1612   26.2636 N   0  0  0  0  0  0  0  0  0  0  0  0
    7.6653  -10.9366   27.4235 C   0  0  0  0  0  0  0  0  0  0  0  0
    6.5671  -11.7637   27.3734 C   0  0  0  0  0  0  0  0  0  0  0  0
    6.5885  -12.5292   26.2333 N   0  0  0  0  0  0  0  0  0  0  0  0
    7.6671  -12.1421   25.5971 C   0  0  0  0  0  0  0  0  0  0  0  0
   12.2909   -7.6972   25.8257 C   0  0  0  0  0  0  0  0  0  0  0  0
   12.4500   -6.4095   24.9779 C   0  0  0  0  0  0  0  0  0  0  0  0
   13.9889   -3.7506   17.2028 H   0  0  0  0  0  0  0  0  0  0  0  0
   13.0896   -2.8016   18.3740 H   0  0  0  0  0  0  0  0  0  0  0  0
   14.8744   -2.7877   18.3779 H   0  0  0  0  0  0  0  0  0  0  0  0
   13.1260   -5.2301   18.8994 H   0  0  0  0  0  0  0  0  0  0  0  0
   14.8769   -5.1935   18.9432 H   0  0  0  0  0  0  0  0  0  0  0  0
   12.9221   -3.9624   20.9623 H   0  0  0  0  0  0  0  0  0  0  0  0
   15.9330   -3.6411   20.5659 H   0  0  0  0  0  0  0  0  0  0  0  0
   15.3155   -3.6719   22.1985 H   0  0  0  0  0  0  0  0  0  0  0  0
   14.0843   -1.6826   21.9469 H   0  0  0  0  0  0  0  0  0  0  0  0
   15.6202   -1.3765   21.1577 H   0  0  0  0  0  0  0  0  0  0  0  0
   14.1817   -1.6696   20.1791 H   0  0  0  0  0  0  0  0  0  0  0  0
   12.9139   -4.8773   22.8611 H   0  0  0  0  0  0  0  0  0  0  0  0
   14.3853   -6.7978   24.1409 H   0  0  0  0  0  0  0  0  0  0  0  0
   13.7500   -8.8977   23.7143 H   0  0  0  0  0  0  0  0  0  0  0  0
   12.8002   -8.3000   22.3526 H   0  0  0  0  0  0  0  0  0  0  0  0
   11.3942   -9.5968   23.7120 H   0  0  0  0  0  0  0  0  0  0  0  0
   10.7924   -8.0087   23.8365 H   0  0  0  0  0  0  0  0  0  0  0  0
   10.4045  -11.2125   26.4604 H   0  0  0  0  0  0  0  0  0  0  0  0
    9.8115  -10.9731   24.7936 H   0  0  0  0  0  0  0  0  0  0  0  0
    7.9940  -10.2196   28.1637 H   0  0  0  0  0  0  0  0  0  0  0  0
    5.7842  -11.8495   28.1161 H   0  0  0  0  0  0  0  0  0  0  0  0
    8.0301  -12.5276   24.6570 H   0  0  0  0  0  0  0  0  0  0  0  0
   13.2924   -8.0901   26.0675 H   0  0  0  0  0  0  0  0  0  0  0  0
   11.9258   -7.3210   26.7938 H   0  0  0  0  0  0  0  0  0  0  0  0
   11.4843   -5.9936   24.6967 H   0  0  0  0  0  0  0  0  0  0  0  0
   12.9473   -5.6351   25.5756 H   0  0  0  0  0  0  0  0  0  0  0  0
  1  2  1  0
  2  3  1  0
  3  4  1  0
  4  5  1  0
  3  6  1  0
  6  7  2  0
  6  8  1  0
  8  9  1  0
  9 10  1  0
 10 11  1  0
 11 12  1  0
 12 13  1  0
 13 14  2  0
 13 15  1  0
 15 16  1  0
 16 17  1  0
 17 18  2  0
 18 19  1  0
 19 20  2  0
 12 21  1  0
 21 22  1  0
 22  9  1  0
 20 16  1  0
  1 23  1  0
  1 24  1  0
  1 25  1  0
  2 26  1  0
  2 27  1  0
  3 28  1  0
  4 29  1  0
  4 30  1  0
  5 31  1  0
  5 32  1  0
  5 33  1  0
  8 34  1  0
  9 35  1  0
 10 36  1  0
 10 37  1  0
 11 38  1  0
 11 39  1  0
 15 40  1  0
 15 41  1  0
 17 42  1  0
 18 43  1  0
 20 44  1  0
 21 45  1  0
 21 46  1  0
 22 47  1  0
 22 48  1  0
M  END
>  <Energy>  (1246) 
96.268912807068318

>  <compound_id>  (1246) 
44125

>  <target_id>  (1246) 
1

>  <reference_id>  (1246) 
27

>  <inspiration_ids>  (1246) 
[115, 27]

>  <energy_score>  (1246) 
76.61237422871727

>  <distance_score>  (1246) 
13.54920332224243

>  <path>  (1246) 
/opt/xchem-fragalysis-2/maxwin/BulkDock/SCRATCH/511016/C44125-P27/C44125-P27.minimised.mol

>  <scratch_subdir>  (1246) 
/opt/xchem-fragalysis-2/maxwin/BulkDock/SCRATCH/511016/C44125-P27

>  <fragmenstein_runtime>  (1246) 
24.051998138427734

>  <fragmenstein_outcome>  (1246) 
too moved

>  <fragmenstein_mode>  (1246) 
expansion

>  <fragmenstein_error>  (1246) 


$$$$
C44123-P115
     RDKit          3D

 45 46  0  0  0  0  0  0  0  0999 V2000
    7.5023   -8.7267   21.1414 C   0  0  0  0  0  0  0  0  0  0  0  0
    6.0256   -9.0176   21.4435 C   0  0  0  0  0  0  0  0  0  0  0  0
    5.4248   -8.4350   22.7639 C   0  0  0  0  0  0  0  0  0  0  0  0
    5.9486   -6.9744   22.9675 C   0  0  0  0  0  0  0  0  0  0  0  0
    5.6418   -5.9939   21.8270 C   0  0  0  0  0  0  0  0  0  0  0  0
    5.7570   -9.3961   23.9989 C   0  0  0  0  0  0  0  0  0  0  0  0
    6.8347   -9.2185   24.5004 O   0  0  0  0  0  0  0  0  0  0  0  0
    4.7289  -10.4201   24.2709 N   0  0  0  0  0  0  0  0  0  0  0  0
    4.7504  -11.5940   25.1674 C   0  0  0  0  0  0  0  0  0  0  0  0
    5.0256  -12.7117   24.2579 C   0  0  0  0  0  0  0  0  0  0  0  0
    4.1207  -13.4289   25.3720 C   0  0  0  0  0  0  0  0  0  0  0  0
    4.1646  -14.6259   26.0210 N   0  0  0  0  0  0  0  0  0  0  0  0
    3.6382  -15.1909   27.3484 C   0  0  0  0  0  0  0  0  0  0  0  0
    4.4312  -15.0285   28.1931 O   0  0  0  0  0  0  0  0  0  0  0  0
    2.1373  -16.2292   27.9441 C   0  0  0  0  0  0  0  0  0  0  0  0
    1.0824  -16.3979   29.3698 N   0  0  0  0  0  0  0  0  0  0  0  0
   -0.1485  -15.5919   29.7350 C   0  0  0  0  0  0  0  0  0  0  0  0
   -0.2861  -15.6455   31.1379 C   0  0  0  0  0  0  0  0  0  0  0  0
    0.5679  -16.6001   31.6435 N   0  0  0  0  0  0  0  0  0  0  0  0
    1.3330  -17.0261   30.6469 C   0  0  0  0  0  0  0  0  0  0  0  0
    3.5909  -12.7836   25.8847 C   0  0  0  0  0  0  0  0  0  0  0  0
    8.1334   -8.9395   22.0089 H   0  0  0  0  0  0  0  0  0  0  0  0
    7.6606   -7.6980   20.8217 H   0  0  0  0  0  0  0  0  0  0  0  0
    7.8385   -9.3677   20.3191 H   0  0  0  0  0  0  0  0  0  0  0  0
    5.4303   -8.6513   20.5975 H   0  0  0  0  0  0  0  0  0  0  0  0
    5.8914  -10.1068   21.4570 H   0  0  0  0  0  0  0  0  0  0  0  0
    4.3323   -8.4030   22.6678 H   0  0  0  0  0  0  0  0  0  0  0  0
    7.0273   -6.9785   23.1588 H   0  0  0  0  0  0  0  0  0  0  0  0
    5.4929   -6.5827   23.8862 H   0  0  0  0  0  0  0  0  0  0  0  0
    6.0986   -6.2760   20.8776 H   0  0  0  0  0  0  0  0  0  0  0  0
    4.5603   -5.9231   21.6724 H   0  0  0  0  0  0  0  0  0  0  0  0
    6.0094   -4.9962   22.0886 H   0  0  0  0  0  0  0  0  0  0  0  0
    3.9762  -10.3202   23.6006 H   0  0  0  0  0  0  0  0  0  0  0  0
    5.5543  -11.4392   25.9024 H   0  0  0  0  0  0  0  0  0  0  0  0
    4.5298  -12.6447   23.2800 H   0  0  0  0  0  0  0  0  0  0  0  0
    6.0726  -13.0229   24.1584 H   0  0  0  0  0  0  0  0  0  0  0  0
    3.7988  -14.0540   24.4513 H   0  0  0  0  0  0  0  0  0  0  0  0
    5.2430  -13.5726   25.7400 H   0  0  0  0  0  0  0  0  0  0  0  0
    1.4650  -15.6327   27.4921 H   0  0  0  0  0  0  0  0  0  0  0  0
    2.0806  -17.2023   27.4798 H   0  0  0  0  0  0  0  0  0  0  0  0
   -0.7344  -15.0908   28.9745 H   0  0  0  0  0  0  0  0  0  0  0  0
   -1.0085  -15.1333   31.7600 H   0  0  0  0  0  0  0  0  0  0  0  0
    2.1777  -17.6717   30.8281 H   0  0  0  0  0  0  0  0  0  0  0  0
    3.5337  -12.4534   26.9828 H   0  0  0  0  0  0  0  0  0  0  0  0
    2.4660  -12.6331   25.5965 H   0  0  0  0  0  0  0  0  0  0  0  0
  1  2  1  0
  2  3  1  0
  3  4  1  0
  4  5  1  0
  3  6  1  0
  6  7  2  0
  6  8  1  0
  8  9  1  0
  9 10  1  0
 10 11  1  0
 11 12  1  0
 12 13  1  0
 13 14  2  0
 13 15  1  0
 15 16  1  0
 16 17  1  0
 17 18  2  0
 18 19  1  0
 19 20  2  0
 12 21  1  0
 21  9  1  0
 20 16  1  0
  1 22  1  0
  1 23  1  0
  1 24  1  0
  2 25  1  0
  2 26  1  0
  3 27  1  0
  4 28  1  0
  4 29  1  0
  5 30  1  0
  5 31  1  0
  5 32  1  0
  8 33  1  0
  9 34  1  0
 10 35  1  0
 10 36  1  0
 11 37  1  0
 11 38  1  0
 15 39  1  0
 15 40  1  0
 17 41  1  0
 18 42  1  0
 20 43  1  0
 21 44  1  0
 21 45  1  0
M  END
