ver_1.2
     RDKit          3D

 22 25  0  0  0  0  0  0  0  0999 V2000
   -1.4614   -2.2420   -1.1961 C   0  0  0  0  0  0  0  0  0  0  0  0
   -2.7422   -1.6973   -0.7687 N   0  0  0  0  0  0  0  0  0  0  0  0
   -3.9631   -2.1667   -1.0243 C   0  0  0  0  0  0  0  0  0  0  0  0
   -4.9083   -1.3960   -0.4597 N   0  0  0  0  0  0  0  0  0  0  0  0
   -4.2853   -0.4048    0.1757 C   0  0  0  0  0  0  0  0  0  0  0  0
   -4.7570    0.6598    0.9147 C   0  0  0  0  0  0  0  0  0  0  0  0
   -3.8858    1.5487    1.4694 C   0  0  0  0  0  0  0  0  0  0  0  0
   -2.5049    1.3850    1.2925 C   0  0  0  0  0  0  0  0  0  0  0  0
   -2.0395    0.2991    0.5396 C   0  0  0  0  0  0  0  0  0  0  0  0
   -0.5927    0.1851    0.3943 C   0  0  0  0  0  0  0  0  0  0  0  0
    0.0409   -0.8815    0.6676 O   0  0  0  0  0  0  0  0  0  0  0  0
    0.2001    1.2872   -0.0718 N   0  0  0  0  0  0  0  0  0  0  0  0
    1.6149    1.1678   -0.2119 C   0  0  0  0  0  0  0  0  0  0  0  0
    2.3992    2.1965   -0.6462 C   0  0  0  0  0  0  0  0  0  0  0  0
    3.7586    2.0085   -0.7591 C   0  0  0  0  0  0  0  0  0  0  0  0
    4.3713    0.8120   -0.4496 C   0  0  0  0  0  0  0  0  0  0  0  0
    3.5613   -0.2372   -0.0054 C   0  0  0  0  0  0  0  0  0  0  0  0
    2.2039   -0.0411    0.1051 C   0  0  0  0  0  0  0  0  0  0  0  0
    4.4206   -1.4339    0.2701 C   0  0  0  0  0  0  0  0  0  0  0  0
    5.8083   -0.8286    0.2609 C   0  0  0  0  0  0  0  0  0  0  0  0
    5.6816    0.3773   -0.4762 O   0  0  0  0  0  0  0  0  0  0  0  0
   -2.9206   -0.5978   -0.0209 C   0  0  0  0  0  0  0  0  0  0  0  0
  1  2  1  0
  2  3  1  0
  3  4  2  0
  4  5  1  0
  5  6  2  0
  6  7  1  0
  7  8  2  0
  8  9  1  0
  9 10  1  0
 10 11  2  0
 10 12  1  0
 12 13  1  0
 13 14  2  0
 14 15  1  0
 15 16  2  0
 16 17  1  0
 17 18  2  0
 17 19  1  0
 19 20  1  0
 20 21  1  0
  9 22  2  0
 22  2  1  0
 22  5  1  0
 18 13  1  0
 21 16  1  0
M  END
>  <ref_url>  (1) 
https://github.com/mwinokan/BulkDock

>  <submitter_name>  (1) 
Max Winokan

>  <submitter_email>  (1) 
max.winokan@diamond.ac.uk

>  <submitter_institution>  (1) 
DLS

>  <generation_date>  (1) 
2025-08-28

>  <method>  (1) 
openbind_d68ev3c_c1_knitwork_impure

>  <Energy>  (1) 
Energy

>  <scratch_subdir>  (1) 
scratch_subdir

>  <fragmenstein_runtime>  (1) 
fragmenstein_runtime

>  <fragmenstein_outcome>  (1) 
fragmenstein_outcome

>  <fragmenstein_mode>  (1) 
fragmenstein_mode

>  <fragmenstein_error>  (1) 
fragmenstein_error

>  <HIPPO Pose ID>  (1) 
HIPPO Pose ID

>  <HIPPO Compound ID>  (1) 
HIPPO Compound ID

>  <smiles>  (1) 
smiles

>  <ref_pdb>  (1) 
protein reference

>  <ref_mols>  (1) 
fragment inspirations

>  <original ID>  (1) 
alias

>  <compound inchikey>  (1) 
compound inchikey

>  <distance_score>  (1) 
distance_score

>  <energy_score>  (1) 
energy_score

>  <subsites>  (1) 
subsites

$$$$
CCN(C)[C@H]1CCCCC1=O
     RDKit          3D

 11 11  0  0  0  0  0  0  0  0999 V2000
   13.8049    1.8693   15.8398 C   0  0  0  0  0  0  0  0  0  0  0  0
   13.2211    0.7893   14.9367 C   0  0  0  0  0  0  0  0  0  0  0  0
   14.2772   -0.1574   14.5674 N   0  0  0  0  0  0  0  0  0  0  0  0
   14.5473   -0.1352   13.1304 C   0  0  0  0  0  0  0  0  0  0  0  0
   14.1214   -1.5323   15.0952 C   0  0  1  0  0  0  0  0  0  0  0  0
   14.2698   -1.5435   16.6252 C   0  0  0  0  0  0  0  0  0  0  0  0
   14.1439   -2.9533   17.1961 C   0  0  0  0  0  0  0  0  0  0  0  0
   12.9400   -3.7242   16.6575 C   0  0  0  0  0  0  0  0  0  0  0  0
   12.0244   -2.8986   15.7669 C   0  0  0  0  0  0  0  0  0  0  0  0
   12.8155   -2.2273   14.6728 C   0  0  0  0  0  0  0  0  0  0  0  0
   12.4181   -2.2766   13.5098 O   0  0  0  0  0  0  0  0  0  0  0  0
  1  2  1  0
  2  3  1  0
  3  4  1  0
  5  3  1  1
  5  6  1  0
  6  7  1  0
  7  8  1  0
  8  9  1  0
  9 10  1  0
 10 11  2  0
 10  5  1  0
M  END
>  <smiles>  (1) 
C84582-P93

>  <fragmenstein_error>  (1) 


>  <ref_pdb>  (1) 
103

>  <HIPPO Compound ID>  (1) 
65808

>  <fragmenstein_runtime>  (1) 
2.54496

>  <Energy>  (1) 
45.258992

>  <fragmenstein_outcome>  (1) 
acceptable

>  <tags>  (1) 
{'fragmenstein_placed', 'openbind_d68ev3c_c1_knitwork_impure'}

>  <HIPPO Pose ID>  (1) 
40481

>  <inchikey>  (1) 
AMTQEHICTHPCOY-UHFFFAOYSA-N

>  <alias>  (1) 
CCN(C)[C@H]1CCCCC1=O

>  <scratch_subdir>  (1) 
/opt/xchem-fragalysis-2/maxwin/BulkDock/SCRATCH/511020/C84582-P93

>  <fragmenstein_mode>  (1) 
expansion

$$$$
S=c1cc(-c2ccccn2)cn[nH]1
     RDKit          3D

 13 14  0  0  0  0  0  0  0  0999 V2000
   14.0757   -4.9153   21.4486 S   0  0  0  0  0  0  0  0  0  0  0  0
   14.6273   -4.0858   20.1027 C   0  0  0  0  0  0  0  0  0  0  0  0
   13.8052   -3.7555   18.9175 C   0  0  0  0  0  0  0  0  0  0  0  0
   14.3041   -3.0108   17.9194 C   0  0  0  0  0  0  0  0  0  0  0  0
   13.4961   -2.5855   16.7618 C   0  0  0  0  0  0  0  0  0  0  0  0
   13.8145   -1.4506   16.0172 C   0  0  0  0  0  0  0  0  0  0  0  0
   13.0155   -1.0964   14.9322 C   0  0  0  0  0  0  0  0  0  0  0  0
   11.9249   -1.8821   14.6068 C   0  0  0  0  0  0  0  0  0  0  0  0
   11.6652   -2.9862   15.3945 C   0  0  0  0  0  0  0  0  0  0  0  0
   12.4065   -3.3331   16.4694 N   0  0  0  0  0  0  0  0  0  0  0  0
   15.7377   -2.6677   18.0610 C   0  0  0  0  0  0  0  0  0  0  0  0
   16.5036   -2.9379   19.0691 N   0  0  0  0  0  0  0  0  0  0  0  0
   15.9226   -3.6300   20.0866 N   0  0  0  0  0  0  0  0  0  0  0  0
  1  2  2  0
  2  3  1  0
  3  4  2  0
  4  5  1  0
  5  6  2  0
  6  7  1  0
  7  8  2  0
  8  9  1  0
  9 10  2  0
  4 11  1  0
 11 12  2  0
 12 13  1  0
 13  2  1  0
 10  5  1  0
M  END
>  <smiles>  (2) 
C49542-P48

>  <fragmenstein_error>  (2) 


>  <ref_pdb>  (2) 
103

>  <HIPPO Compound ID>  (2) 
60663

>  <fragmenstein_runtime>  (2) 
2.255144

>  <Energy>  (2) 
41.898712

>  <fragmenstein_outcome>  (2) 
acceptable

>  <tags>  (2) 
{'fragmenstein_placed', 'openbind_d68ev3c_c1_knitwork_impure'}

>  <HIPPO Pose ID>  (2) 
42936

>  <inchikey>  (2) 
NVMHLWXPBDILNL-UHFFFAOYSA-N

>  <alias>  (2) 
S=c1cc(-c2ccccn2)cn[nH]1

>  <scratch_subdir>  (2) 
/opt/xchem-fragalysis-2/maxwin/BulkDock/SCRATCH/511020/C49542-P48

>  <fragmenstein_mode>  (2) 
expansion

$$$$
C[C@@H](NCc1cc2n(n1)CCC2)[C@@H](O)c1ccc2c(c1)OCO2
     RDKit          3D

 23 26  0  0  0  0  0  0  0  0999 V2000
   -0.2824   -4.1666   30.5537 C   0  0  0  0  0  0  0  0  0  0  0  0
   -0.5311   -2.6792   30.2528 C   0  0  1  0  0  0  0  0  0  0  0  0
   -0.3339   -1.9782   31.5377 N   0  0  0  0  0  0  0  0  0  0  0  0
   -0.9937   -0.6659   31.6309 C   0  0  0  0  0  0  0  0  0  0  0  0
   -2.2814   -0.7631   32.3986 C   0  0  0  0  0  0  0  0  0  0  0  0
   -3.2432   -1.8191   32.3437 C   0  0  0  0  0  0  0  0  0  0  0  0
   -4.1897   -1.4514   33.2497 C   0  0  0  0  0  0  0  0  0  0  0  0
   -3.7853   -0.2737   33.7653 N   0  0  0  0  0  0  0  0  0  0  0  0
   -2.6594    0.2113   33.2589 N   0  0  0  0  0  0  0  0  0  0  0  0
   -4.7425    0.3547   34.6542 C   0  0  0  0  0  0  0  0  0  0  0  0
   -5.9879   -0.5171   34.4218 C   0  0  0  0  0  0  0  0  0  0  0  0
   -5.4761   -1.8528   33.8292 C   0  0  0  0  0  0  0  0  0  0  0  0
    0.4585   -2.1650   29.1490 C   0  0  1  0  0  0  0  0  0  0  0  0
    0.6783   -3.1411   28.1346 O   0  0  0  0  0  0  0  0  0  0  0  0
    0.0509   -0.8603   28.4887 C   0  0  0  0  0  0  0  0  0  0  0  0
    0.9307    0.2491   28.5517 C   0  0  0  0  0  0  0  0  0  0  0  0
    0.5764    1.4922   28.0185 C   0  0  0  0  0  0  0  0  0  0  0  0
   -0.6592    1.6054   27.4251 C   0  0  0  0  0  0  0  0  0  0  0  0
   -1.5174    0.5371   27.3353 C   0  0  0  0  0  0  0  0  0  0  0  0
   -1.1911   -0.7063   27.8442 C   0  0  0  0  0  0  0  0  0  0  0  0
   -2.6714    0.8665   26.6958 O   0  0  0  0  0  0  0  0  0  0  0  0
   -2.4776    2.2766   26.4721 C   0  0  0  0  0  0  0  0  0  0  0  0
   -1.1651    2.7336   26.8591 O   0  0  0  0  0  0  0  0  0  0  0  0
  2  1  1  1
  2  3  1  0
  3  4  1  0
  4  5  1  0
  5  6  1  0
  6  7  2  0
  7  8  1  0
  8  9  1  0
  8 10  1  0
 10 11  1  0
 11 12  1  0
  2 13  1  0
 13 14  1  6
 13 15  1  0
 15 16  2  0
 16 17  1  0
 17 18  2  0
 18 19  1  0
 19 20  2  0
 19 21  1  0
 21 22  1  0
 22 23  1  0
  9  5  2  0
 20 15  1  0
 12  7  1  0
 23 18  1  0
M  END
>  <smiles>  (3) 
C62846-P13

>  <fragmenstein_error>  (3) 


>  <ref_pdb>  (3) 
103

>  <HIPPO Compound ID>  (3) 
64715

>  <fragmenstein_runtime>  (3) 
2.44725

>  <Energy>  (3) 
96.16795

>  <fragmenstein_outcome>  (3) 
acceptable

>  <tags>  (3) 
{'fragmenstein_placed', 'openbind_d68ev3c_c1_knitwork_impure'}

>  <HIPPO Pose ID>  (3) 
43775

>  <inchikey>  (3) 
CFLUZAJXXJSKQD-UHFFFAOYSA-N

>  <alias>  (3) 
C[C@@H](NCc1cc2n(n1)CCC2)[C@@H](O)c1ccc2c(c1)OCO2

>  <scratch_subdir>  (3) 
/opt/xchem-fragalysis-2/maxwin/BulkDock/SCRATCH/511020/C62846-P13

>  <fragmenstein_mode>  (3) 
expansion

$$$$
CN(Cc1cnco1)C[C@H](O)COCc1ccc2c(c1)OCO2
     RDKit          3D

 23 25  0  0  0  0  0  0  0  0999 V2000
   -3.4882   -2.3156   32.2434 C   0  0  0  0  0  0  0  0  0  0  0  0
   -3.2608   -0.9192   32.5669 N   0  0  0  0  0  0  0  0  0  0  0  0
   -3.3654   -0.7011   34.0189 C   0  0  0  0  0  0  0  0  0  0  0  0
   -4.7774   -0.7436   34.5092 C   0  0  0  0  0  0  0  0  0  0  0  0
   -6.0298   -0.6967   33.9339 C   0  0  0  0  0  0  0  0  0  0  0  0
   -7.0044   -0.7923   34.8990 N   0  0  0  0  0  0  0  0  0  0  0  0
   -6.3178   -0.8313   36.0142 C   0  0  0  0  0  0  0  0  0  0  0  0
   -4.9655   -0.8308   35.8653 O   0  0  0  0  0  0  0  0  0  0  0  0
   -2.0012   -0.4497   31.9613 C   0  0  0  0  0  0  0  0  0  0  0  0
   -0.6540   -1.1969   32.1471 C   0  0  2  0  0  0  0  0  0  0  0  0
    0.4071   -0.2949   31.7787 O   0  0  0  0  0  0  0  0  0  0  0  0
   -0.4423   -2.5225   31.3860 C   0  0  0  0  0  0  0  0  0  0  0  0
   -0.9924   -2.5375   30.0709 O   0  0  0  0  0  0  0  0  0  0  0  0
   -0.0663   -2.2829   29.0130 C   0  0  0  0  0  0  0  0  0  0  0  0
   -0.2826   -0.9046   28.4425 C   0  0  0  0  0  0  0  0  0  0  0  0
    0.7492    0.0616   28.4646 C   0  0  0  0  0  0  0  0  0  0  0  0
    0.5437    1.3448   27.9464 C   0  0  0  0  0  0  0  0  0  0  0  0
   -0.6881    1.6268   27.3968 C   0  0  0  0  0  0  0  0  0  0  0  0
   -1.6887    0.6885   27.3469 C   0  0  0  0  0  0  0  0  0  0  0  0
   -1.5189   -0.5801   27.8591 C   0  0  0  0  0  0  0  0  0  0  0  0
   -2.8079    1.1628   26.7399 O   0  0  0  0  0  0  0  0  0  0  0  0
   -2.4359    2.5323   26.4987 C   0  0  0  0  0  0  0  0  0  0  0  0
   -1.0566    2.8090   26.8348 O   0  0  0  0  0  0  0  0  0  0  0  0
  1  2  1  0
  2  3  1  0
  3  4  1  0
  4  5  2  0
  5  6  1  0
  6  7  2  0
  7  8  1  0
  2  9  1  0
  9 10  1  0
 10 11  1  6
 10 12  1  0
 12 13  1  0
 13 14  1  0
 14 15  1  0
 15 16  2  0
 16 17  1  0
 17 18  2  0
 18 19  1  0
 19 20  2  0
 19 21  1  0
 21 22  1  0
 22 23  1  0
  8  4  1  0
 20 15  1  0
 23 18  1  0
M  END
>  <smiles>  (4) 
C62847-P13

>  <fragmenstein_error>  (4) 


>  <ref_pdb>  (4) 
103

>  <HIPPO Compound ID>  (4) 
15259

>  <fragmenstein_runtime>  (4) 
1.554632

>  <Energy>  (4) 
92.981131

>  <fragmenstein_outcome>  (4) 
acceptable

>  <tags>  (4) 
{'fragmenstein_placed', 'openbind_d68ev3c_c1_knitwork_impure'}

>  <HIPPO Pose ID>  (4) 
43777

>  <inchikey>  (4) 
JUMOLFANWQYULP-UHFFFAOYSA-N

>  <alias>  (4) 
CN(Cc1cnco1)C[C@H](O)COCc1ccc2c(c1)OCO2

>  <scratch_subdir>  (4) 
/opt/xchem-fragalysis-2/maxwin/BulkDock/SCRATCH/511020/C62847-P13

>  <fragmenstein_mode>  (4) 
expansion

$$$$
CN(Cc1ccns1)C[C@@H](O)COCc1ccc2c(c1)OCO2
     RDKit          3D

 23 25  0  0  0  0  0  0  0  0999 V2000
   -3.4593   -2.2649   32.2925 C   0  0  0  0  0  0  0  0  0  0  0  0
   -3.1414   -0.8845   32.5997 N   0  0  0  0  0  0  0  0  0  0  0  0
   -3.1738   -0.6398   34.0488 C   0  0  0  0  0  0  0  0  0  0  0  0
   -4.5773   -0.6183   34.5886 C   0  0  0  0  0  0  0  0  0  0  0  0
   -5.7725   -0.2517   34.0032 C   0  0  0  0  0  0  0  0  0  0  0  0
   -6.8497   -0.3821   34.9192 C   0  0  0  0  0  0  0  0  0  0  0  0
   -6.5538   -0.8387   36.1309 N   0  0  0  0  0  0  0  0  0  0  0  0
   -4.9104   -1.0629   36.2074 S   0  0  0  0  0  0  0  0  0  0  0  0
   -1.9152   -0.4457   31.9011 C   0  0  0  0  0  0  0  0  0  0  0  0
   -0.5634   -1.2007   32.0005 C   0  0  1  0  0  0  0  0  0  0  0  0
   -0.1444   -1.2912   33.3703 O   0  0  0  0  0  0  0  0  0  0  0  0
   -0.4477   -2.5840   31.3357 C   0  0  0  0  0  0  0  0  0  0  0  0
   -1.0206   -2.6793   30.0405 O   0  0  0  0  0  0  0  0  0  0  0  0
   -0.1355   -2.3517   28.9678 C   0  0  0  0  0  0  0  0  0  0  0  0
   -0.3569   -0.9442   28.4788 C   0  0  0  0  0  0  0  0  0  0  0  0
    0.6314    0.0507   28.6524 C   0  0  0  0  0  0  0  0  0  0  0  0
    0.4353    1.3506   28.1722 C   0  0  0  0  0  0  0  0  0  0  0  0
   -0.7487    1.6252   27.5232 C   0  0  0  0  0  0  0  0  0  0  0  0
   -1.7143    0.6660   27.3466 C   0  0  0  0  0  0  0  0  0  0  0  0
   -1.5512   -0.6211   27.8132 C   0  0  0  0  0  0  0  0  0  0  0  0
   -2.7910    1.1394   26.6656 O   0  0  0  0  0  0  0  0  0  0  0  0
   -2.4364    2.5266   26.5143 C   0  0  0  0  0  0  0  0  0  0  0  0
   -1.0995    2.8212   26.9794 O   0  0  0  0  0  0  0  0  0  0  0  0
  1  2  1  0
  2  3  1  0
  3  4  1  0
  4  5  2  0
  5  6  1  0
  6  7  2  0
  7  8  1  0
  2  9  1  0
  9 10  1  0
 10 11  1  1
 10 12  1  0
 12 13  1  0
 13 14  1  0
 14 15  1  0
 15 16  2  0
 16 17  1  0
 17 18  2  0
 18 19  1  0
 19 20  2  0
 19 21  1  0
 21 22  1  0
 22 23  1  0
  8  4  1  0
 20 15  1  0
 23 18  1  0
M  END
>  <smiles>  (5) 
C62848-P13

>  <fragmenstein_error>  (5) 


>  <ref_pdb>  (5) 
103

>  <HIPPO Compound ID>  (5) 
67927

>  <fragmenstein_runtime>  (5) 
2.251426

>  <Energy>  (5) 
81.114862

>  <fragmenstein_outcome>  (5) 
acceptable

>  <tags>  (5) 
{'fragmenstein_placed', 'openbind_d68ev3c_c1_knitwork_impure'}

>  <HIPPO Pose ID>  (5) 
43778

>  <inchikey>  (5) 
VSQHCBLGWFINIK-UHFFFAOYSA-N

>  <alias>  (5) 
CN(Cc1ccns1)C[C@@H](O)COCc1ccc2c(c1)OCO2

>  <scratch_subdir>  (5) 
/opt/xchem-fragalysis-2/maxwin/BulkDock/SCRATCH/511020/C62848-P13

>  <fragmenstein_mode>  (5) 
expansion

$$$$
CC(C)N(CCCBr)Cc1cscn1
     RDKit          3D

 14 14  0  0  0  0  0  0  0  0999 V2000
   14.9738   -3.1378   18.9313 C   0  0  0  0  0  0  0  0  0  0  0  0
   15.7331   -2.7213   17.6751 C   0  0  0  0  0  0  0  0  0  0  0  0
   17.2236   -3.0672   17.8082 C   0  0  0  0  0  0  0  0  0  0  0  0
   15.3719   -1.3093   17.3595 N   0  0  0  0  0  0  0  0  0  0  0  0
   16.4394   -0.3456   17.6951 C   0  0  0  0  0  0  0  0  0  0  0  0
   16.0181    1.1359   17.7427 C   0  0  0  0  0  0  0  0  0  0  0  0
   14.9545    1.4457   18.7790 C   0  0  0  0  0  0  0  0  0  0  0  0
   15.6632    1.2996   20.5832 Br  0  0  0  0  0  0  0  0  0  0  0  0
   14.9923   -1.2006   15.9400 C   0  0  0  0  0  0  0  0  0  0  0  0
   13.5415   -1.5262   15.7077 C   0  0  0  0  0  0  0  0  0  0  0  0
   12.9241   -2.7610   15.7994 C   0  0  0  0  0  0  0  0  0  0  0  0
   11.3326   -2.6771   15.1910 S   0  0  0  0  0  0  0  0  0  0  0  0
   11.5382   -1.0040   14.9144 C   0  0  0  0  0  0  0  0  0  0  0  0
   12.7096   -0.5079   15.2432 N   0  0  0  0  0  0  0  0  0  0  0  0
  1  2  1  0
  2  3  1  0
  2  4  1  0
  4  5  1  0
  5  6  1  0
  6  7  1  0
  7  8  1  0
  4  9  1  0
  9 10  1  0
 10 11  2  0
 11 12  1  0
 12 13  1  0
 13 14  2  0
 14 10  1  0
M  END
>  <smiles>  (6) 
C82127-P71

>  <fragmenstein_error>  (6) 


>  <ref_pdb>  (6) 
103

>  <HIPPO Compound ID>  (6) 
55917

>  <fragmenstein_runtime>  (6) 
1.29044

>  <Energy>  (6) 
31.198203

>  <fragmenstein_outcome>  (6) 
acceptable

>  <tags>  (6) 
{'fragmenstein_placed', 'openbind_d68ev3c_c1_knitwork_impure'}

>  <HIPPO Pose ID>  (6) 
43984

>  <inchikey>  (6) 
IMTKWFPVQAOPKV-UHFFFAOYSA-N

>  <alias>  (6) 
CC(C)N(CCCBr)Cc1cscn1

>  <scratch_subdir>  (6) 
/opt/xchem-fragalysis-2/maxwin/BulkDock/SCRATCH/511020/C82127-P71

>  <fragmenstein_mode>  (6) 
expansion

$$$$
CC(=Cc1cscn1)CNCC(C)C
     RDKit          3D

 14 14  0  0  0  0  0  0  0  0999 V2000
   16.2316   -2.6774   17.5138 C   0  0  0  0  0  0  0  0  0  0  0  0
   15.8026   -1.2913   17.1254 C   0  0  0  0  0  0  0  0  0  0  0  0
   14.6968   -0.9979   16.4189 C   0  0  0  0  0  0  0  0  0  0  0  0
   13.6623   -1.8271   15.9384 C   0  0  0  0  0  0  0  0  0  0  0  0
   13.0273   -2.8516   16.6012 C   0  0  0  0  0  0  0  0  0  0  0  0
   11.7008   -3.3644   15.6578 S   0  0  0  0  0  0  0  0  0  0  0  0
   12.1199   -2.2394   14.4484 C   0  0  0  0  0  0  0  0  0  0  0  0
   13.1475   -1.4707   14.7132 N   0  0  0  0  0  0  0  0  0  0  0  0
   16.7312   -0.1802   17.5716 C   0  0  0  0  0  0  0  0  0  0  0  0
   15.9977    1.0342   17.9385 N   0  0  0  0  0  0  0  0  0  0  0  0
   16.5697    1.7626   19.0649 C   0  0  0  0  0  0  0  0  0  0  0  0
   16.1530    1.2706   20.4672 C   0  0  0  0  0  0  0  0  0  0  0  0
   14.6403    1.2970   20.6659 C   0  0  0  0  0  0  0  0  0  0  0  0
   16.6970   -0.1080   20.8339 C   0  0  0  0  0  0  0  0  0  0  0  0
  1  2  1  0
  2  3  2  3
  3  4  1  0
  4  5  2  0
  5  6  1  0
  6  7  1  0
  7  8  2  0
  2  9  1  0
  9 10  1  0
 10 11  1  0
 11 12  1  0
 12 13  1  0
 12 14  1  0
  8  4  1  0
M  END
>  <smiles>  (7) 
C82160-P71

>  <fragmenstein_error>  (7) 


>  <ref_pdb>  (7) 
103

>  <HIPPO Compound ID>  (7) 
84677

>  <fragmenstein_runtime>  (7) 
1.076358

>  <Energy>  (7) 
3.70566

>  <fragmenstein_outcome>  (7) 
acceptable

>  <tags>  (7) 
{'fragmenstein_placed', 'openbind_d68ev3c_c1_knitwork_impure'}

>  <HIPPO Pose ID>  (7) 
43996

>  <inchikey>  (7) 
QPRVTBJLRYLMQX-UHFFFAOYSA-N

>  <alias>  (7) 
CC(=Cc1cscn1)CNCC(C)C

>  <scratch_subdir>  (7) 
/opt/xchem-fragalysis-2/maxwin/BulkDock/SCRATCH/511020/C82160-P71

>  <fragmenstein_mode>  (7) 
expansion

$$$$
CC[C@H](c1nc2ccccc2[nH]1)N(CC)CCO
     RDKit          3D

 18 19  0  0  0  0  0  0  0  0999 V2000
   12.6684    4.2775   17.1226 C   0  0  0  0  0  0  0  0  0  0  0  0
   13.8794    3.3603   17.2508 C   0  0  0  0  0  0  0  0  0  0  0  0
   14.0532    2.4839   15.9872 C   0  0  2  0  0  0  0  0  0  0  0  0
   13.4023    1.1343   16.1323 C   0  0  0  0  0  0  0  0  0  0  0  0
   12.3640    0.7033   15.4439 N   0  0  0  0  0  0  0  0  0  0  0  0
   12.3025   -0.6441   15.6800 C   0  0  0  0  0  0  0  0  0  0  0  0
   11.4520   -1.6062   15.1308 C   0  0  0  0  0  0  0  0  0  0  0  0
   11.6333   -2.9452   15.4875 C   0  0  0  0  0  0  0  0  0  0  0  0
   12.6266   -3.3155   16.3969 C   0  0  0  0  0  0  0  0  0  0  0  0
   13.4734   -2.3642   16.9760 C   0  0  0  0  0  0  0  0  0  0  0  0
   13.2740   -1.0376   16.5898 C   0  0  0  0  0  0  0  0  0  0  0  0
   13.8952    0.1330   16.9355 N   0  0  0  0  0  0  0  0  0  0  0  0
   15.4505    2.3993   15.4923 N   0  0  0  0  0  0  0  0  0  0  0  0
   16.4743    2.0149   16.4681 C   0  0  0  0  0  0  0  0  0  0  0  0
   17.1950    0.6805   16.2687 C   0  0  0  0  0  0  0  0  0  0  0  0
   15.6167    1.8112   14.1450 C   0  0  0  0  0  0  0  0  0  0  0  0
   14.8730    2.5643   13.0292 C   0  0  0  0  0  0  0  0  0  0  0  0
   15.2135    3.9502   13.0700 O   0  0  0  0  0  0  0  0  0  0  0  0
  1  2  1  0
  3  2  1  1
  3  4  1  0
  4  5  2  0
  5  6  1  0
  6  7  2  0
  7  8  1  0
  8  9  2  0
  9 10  1  0
 10 11  2  0
 11 12  1  0
  3 13  1  0
 13 14  1  0
 14 15  1  0
 13 16  1  0
 16 17  1  0
 17 18  1  0
 12  4  1  0
 11  6  1  0
M  END
>  <smiles>  (8) 
C57419-P103

>  <fragmenstein_error>  (8) 


>  <ref_pdb>  (8) 
103

>  <HIPPO Compound ID>  (8) 
64666

>  <fragmenstein_runtime>  (8) 
1.273499

>  <Energy>  (8) 
48.798794

>  <fragmenstein_outcome>  (8) 
acceptable

>  <tags>  (8) 
{'fragmenstein_placed', 'openbind_d68ev3c_c1_knitwork_impure'}

>  <HIPPO Pose ID>  (8) 
45182

>  <inchikey>  (8) 
QLANIMZLODOYJU-UHFFFAOYSA-N

>  <alias>  (8) 
CC[C@H](c1nc2ccccc2[nH]1)N(CC)CCO

>  <scratch_subdir>  (8) 
/opt/xchem-fragalysis-2/maxwin/BulkDock/SCRATCH/511020/C57419-P103

>  <fragmenstein_mode>  (8) 
expansion

$$$$
CC[C@H](c1nc2ccccc2[nH]1)N(C)CCO
     RDKit          3D

 17 18  0  0  0  0  0  0  0  0999 V2000
   14.7489    2.8490   18.7119 C   0  0  0  0  0  0  0  0  0  0  0  0
   13.8385    3.2068   17.5479 C   0  0  0  0  0  0  0  0  0  0  0  0
   14.0396    2.4544   16.2114 C   0  0  2  0  0  0  0  0  0  0  0  0
   13.4616    1.0621   16.2264 C   0  0  0  0  0  0  0  0  0  0  0  0
   12.4316    0.6563   15.5084 N   0  0  0  0  0  0  0  0  0  0  0  0
   12.3536   -0.6961   15.7006 C   0  0  0  0  0  0  0  0  0  0  0  0
   11.4833   -1.6272   15.1297 C   0  0  0  0  0  0  0  0  0  0  0  0
   11.6318   -2.9754   15.4654 C   0  0  0  0  0  0  0  0  0  0  0  0
   12.6149   -3.3845   16.3696 C   0  0  0  0  0  0  0  0  0  0  0  0
   13.4877   -2.4656   16.9610 C   0  0  0  0  0  0  0  0  0  0  0  0
   13.3192   -1.1289   16.5981 C   0  0  0  0  0  0  0  0  0  0  0  0
   13.9668    0.0195   16.9672 N   0  0  0  0  0  0  0  0  0  0  0  0
   15.3984    2.5724   15.6390 N   0  0  0  0  0  0  0  0  0  0  0  0
   16.3954    1.5931   16.0347 C   0  0  0  0  0  0  0  0  0  0  0  0
   15.4290    2.8092   14.1815 C   0  0  0  0  0  0  0  0  0  0  0  0
   14.8043    1.7617   13.2520 C   0  0  0  0  0  0  0  0  0  0  0  0
   15.1018    2.0877   11.8950 O   0  0  0  0  0  0  0  0  0  0  0  0
  1  2  1  0
  3  2  1  1
  3  4  1  0
  4  5  2  0
  5  6  1  0
  6  7  2  0
  7  8  1  0
  8  9  2  0
  9 10  1  0
 10 11  2  0
 11 12  1  0
  3 13  1  0
 13 14  1  0
 13 15  1  0
 15 16  1  0
 16 17  1  0
 12  4  1  0
 11  6  1  0
M  END
>  <smiles>  (9) 
C57429-P103

>  <fragmenstein_error>  (9) 


>  <ref_pdb>  (9) 
103

>  <HIPPO Compound ID>  (9) 
52064

>  <fragmenstein_runtime>  (9) 
1.214775

>  <Energy>  (9) 
50.930321

>  <fragmenstein_outcome>  (9) 
acceptable

>  <tags>  (9) 
{'fragmenstein_placed', 'openbind_d68ev3c_c1_knitwork_impure'}

>  <HIPPO Pose ID>  (9) 
45187

>  <inchikey>  (9) 
TWUYPGQORWIICO-UHFFFAOYSA-N

>  <alias>  (9) 
CC[C@H](c1nc2ccccc2[nH]1)N(C)CCO

>  <scratch_subdir>  (9) 
/opt/xchem-fragalysis-2/maxwin/BulkDock/SCRATCH/511020/C57429-P103

>  <fragmenstein_mode>  (9) 
expansion

$$$$
CCN[C@H](CO)CCn1cnc2ccccc21
     RDKit          3D

 17 18  0  0  0  0  0  0  0  0999 V2000
   14.9461    0.7869   12.1264 C   0  0  0  0  0  0  0  0  0  0  0  0
   15.8925    1.8977   12.5658 C   0  0  0  0  0  0  0  0  0  0  0  0
   16.2742    1.8420   13.9855 N   0  0  0  0  0  0  0  0  0  0  0  0
   15.1537    2.0992   14.9150 C   0  0  2  0  0  0  0  0  0  0  0  0
   14.6007    3.5343   14.7489 C   0  0  0  0  0  0  0  0  0  0  0  0
   15.6758    4.4718   14.8299 O   0  0  0  0  0  0  0  0  0  0  0  0
   15.6305    1.9024   16.3888 C   0  0  0  0  0  0  0  0  0  0  0  0
   15.1584    0.5939   17.0524 C   0  0  0  0  0  0  0  0  0  0  0  0
   13.7595    0.2938   16.8129 N   0  0  0  0  0  0  0  0  0  0  0  0
   12.7699    1.2212   16.6294 C   0  0  0  0  0  0  0  0  0  0  0  0
   11.7521    0.7130   15.9753 N   0  0  0  0  0  0  0  0  0  0  0  0
   12.0210   -0.6276   15.8869 C   0  0  0  0  0  0  0  0  0  0  0  0
   11.2428   -1.6508   15.3384 C   0  0  0  0  0  0  0  0  0  0  0  0
   11.6815   -2.9692   15.4816 C   0  0  0  0  0  0  0  0  0  0  0  0
   12.8749   -3.2593   16.1462 C   0  0  0  0  0  0  0  0  0  0  0  0
   13.7048   -2.2448   16.6318 C   0  0  0  0  0  0  0  0  0  0  0  0
   13.2403   -0.9349   16.4875 C   0  0  0  0  0  0  0  0  0  0  0  0
  1  2  1  0
  2  3  1  0
  3  4  1  0
  4  5  1  1
  5  6  1  0
  4  7  1  0
  7  8  1  0
  8  9  1  0
  9 10  1  0
 10 11  2  0
 11 12  1  0
 12 13  2  0
 13 14  1  0
 14 15  2  0
 15 16  1  0
 16 17  2  0
 17  9  1  0
 17 12  1  0
M  END
>  <smiles>  (10) 
C57441-P103

>  <fragmenstein_error>  (10) 


>  <ref_pdb>  (10) 
103

>  <HIPPO Compound ID>  (10) 
20704

>  <fragmenstein_runtime>  (10) 
1.013905

>  <Energy>  (10) 
37.82361

>  <fragmenstein_outcome>  (10) 
acceptable

>  <tags>  (10) 
{'fragmenstein_placed', 'openbind_d68ev3c_c1_knitwork_impure'}

>  <HIPPO Pose ID>  (10) 
45193

>  <inchikey>  (10) 
CJSMBSPCAQFIGB-UHFFFAOYSA-N

>  <alias>  (10) 
CCN[C@H](CO)CCn1cnc2ccccc21

>  <scratch_subdir>  (10) 
/opt/xchem-fragalysis-2/maxwin/BulkDock/SCRATCH/511020/C57441-P103

>  <fragmenstein_mode>  (10) 
expansion

$$$$
C[C@H](c1nc2ccccc2[nH]1)N(C)CCO
     RDKit          3D

 16 17  0  0  0  0  0  0  0  0999 V2000
   13.8915    3.1399   17.5223 C   0  0  0  0  0  0  0  0  0  0  0  0
   14.0066    2.4452   16.1583 C   0  0  2  0  0  0  0  0  0  0  0  0
   13.4219    1.0612   16.2081 C   0  0  0  0  0  0  0  0  0  0  0  0
   12.3950    0.6392   15.4983 N   0  0  0  0  0  0  0  0  0  0  0  0
   12.3360   -0.7120   15.7045 C   0  0  0  0  0  0  0  0  0  0  0  0
   11.4763   -1.6589   15.1441 C   0  0  0  0  0  0  0  0  0  0  0  0
   11.6443   -3.0019   15.4892 C   0  0  0  0  0  0  0  0  0  0  0  0
   12.6363   -3.3911   16.3925 C   0  0  0  0  0  0  0  0  0  0  0  0
   13.4984   -2.4561   16.9749 C   0  0  0  0  0  0  0  0  0  0  0  0
   13.3110   -1.1243   16.6029 C   0  0  0  0  0  0  0  0  0  0  0  0
   13.9448    0.0359   16.9601 N   0  0  0  0  0  0  0  0  0  0  0  0
   15.3654    2.5074   15.5532 N   0  0  0  0  0  0  0  0  0  0  0  0
   16.4472    2.0202   16.4021 C   0  0  0  0  0  0  0  0  0  0  0  0
   15.4664    1.8921   14.2025 C   0  0  0  0  0  0  0  0  0  0  0  0
   14.6480    2.6278   13.1324 C   0  0  0  0  0  0  0  0  0  0  0  0
   14.9798    4.0165   13.1439 O   0  0  0  0  0  0  0  0  0  0  0  0
  2  1  1  1
  2  3  1  0
  3  4  2  0
  4  5  1  0
  5  6  2  0
  6  7  1  0
  7  8  2  0
  8  9  1  0
  9 10  2  0
 10 11  1  0
  2 12  1  0
 12 13  1  0
 12 14  1  0
 14 15  1  0
 15 16  1  0
 11  3  1  0
 10  5  1  0
M  END
>  <smiles>  (11) 
C57456-P103

>  <fragmenstein_error>  (11) 


>  <ref_pdb>  (11) 
103

>  <HIPPO Compound ID>  (11) 
56349

>  <fragmenstein_runtime>  (11) 
1.270662

>  <Energy>  (11) 
42.752365

>  <fragmenstein_outcome>  (11) 
acceptable

>  <tags>  (11) 
{'fragmenstein_placed', 'openbind_d68ev3c_c1_knitwork_impure'}

>  <HIPPO Pose ID>  (11) 
45197

>  <inchikey>  (11) 
IGBKDKSVCMPWNY-UHFFFAOYSA-N

>  <alias>  (11) 
C[C@H](c1nc2ccccc2[nH]1)N(C)CCO

>  <scratch_subdir>  (11) 
/opt/xchem-fragalysis-2/maxwin/BulkDock/SCRATCH/511020/C57456-P103

>  <fragmenstein_mode>  (11) 
expansion

$$$$
C1=C(c2ccccc2)CCC[C@H]1NCc1ccc2c(c1)OCO2
     RDKit          3D

 23 26  0  0  0  0  0  0  0  0999 V2000
   -0.6575   -3.6407   31.7342 C   0  0  0  0  0  0  0  0  0  0  0  0
   -0.4080   -3.3600   33.0273 C   0  0  0  0  0  0  0  0  0  0  0  0
    0.2117   -4.3800   33.9031 C   0  0  0  0  0  0  0  0  0  0  0  0
    1.2785   -4.0513   34.7488 C   0  0  0  0  0  0  0  0  0  0  0  0
    1.8532   -5.0170   35.5814 C   0  0  0  0  0  0  0  0  0  0  0  0
    1.3640   -6.3222   35.5845 C   0  0  0  0  0  0  0  0  0  0  0  0
    0.2984   -6.6650   34.7569 C   0  0  0  0  0  0  0  0  0  0  0  0
   -0.2731   -5.6992   33.9241 C   0  0  0  0  0  0  0  0  0  0  0  0
   -0.7564   -2.0174   33.6316 C   0  0  0  0  0  0  0  0  0  0  0  0
   -1.6990   -1.1722   32.7588 C   0  0  0  0  0  0  0  0  0  0  0  0
   -1.2848   -1.2329   31.2923 C   0  0  0  0  0  0  0  0  0  0  0  0
   -1.3389   -2.6860   30.7901 C   0  0  1  0  0  0  0  0  0  0  0  0
   -0.9020   -2.9715   29.4316 N   0  0  0  0  0  0  0  0  0  0  0  0
    0.1854   -2.1754   28.8801 C   0  0  0  0  0  0  0  0  0  0  0  0
   -0.1967   -0.7946   28.3867 C   0  0  0  0  0  0  0  0  0  0  0  0
    0.7065    0.2789   28.5790 C   0  0  0  0  0  0  0  0  0  0  0  0
    0.4138    1.5668   28.1182 C   0  0  0  0  0  0  0  0  0  0  0  0
   -0.7807    1.7565   27.4613 C   0  0  0  0  0  0  0  0  0  0  0  0
   -1.6593    0.7242   27.2512 C   0  0  0  0  0  0  0  0  0  0  0  0
   -1.3950   -0.5567   27.6895 C   0  0  0  0  0  0  0  0  0  0  0  0
   -2.7625    1.1189   26.5625 O   0  0  0  0  0  0  0  0  0  0  0  0
   -2.5183    2.5324   26.4341 C   0  0  0  0  0  0  0  0  0  0  0  0
   -1.2226    2.9299   26.9361 O   0  0  0  0  0  0  0  0  0  0  0  0
  1  2  2  0
  2  3  1  0
  3  4  2  0
  4  5  1  0
  5  6  2  0
  6  7  1  0
  7  8  2  0
  2  9  1  0
  9 10  1  0
 10 11  1  0
 11 12  1  0
 12 13  1  6
 13 14  1  0
 14 15  1  0
 15 16  2  0
 16 17  1  0
 17 18  2  0
 18 19  1  0
 19 20  2  0
 19 21  1  0
 21 22  1  0
 22 23  1  0
 12  1  1  0
 20 15  1  0
  8  3  1  0
 23 18  1  0
M  END
>  <smiles>  (12) 
C67752-P13

>  <fragmenstein_error>  (12) 


>  <ref_pdb>  (12) 
103

>  <HIPPO Compound ID>  (12) 
28382

>  <fragmenstein_runtime>  (12) 
7.05945

>  <Energy>  (12) 
33.378068

>  <fragmenstein_outcome>  (12) 
acceptable

>  <tags>  (12) 
{'fragmenstein_placed', 'openbind_d68ev3c_c1_knitwork_impure'}

>  <HIPPO Pose ID>  (12) 
45982

>  <inchikey>  (12) 
FFVUVUGMIAXFQL-UHFFFAOYSA-N

>  <alias>  (12) 
C1=C(c2ccccc2)CCC[C@H]1NCc1ccc2c(c1)OCO2

>  <scratch_subdir>  (12) 
/opt/xchem-fragalysis-2/maxwin/BulkDock/SCRATCH/511020/C67752-P13

>  <fragmenstein_mode>  (12) 
expansion

$$$$
C=C1CC(NC(=O)C2=Cc3cc(C)ccc3OC2)C1
     RDKit          3D

 19 21  0  0  0  0  0  0  0  0999 V2000
  -16.2004    0.5087    7.8379 C   0  0  0  0  0  0  0  0  0  0  0  0
  -14.9015    0.2065    7.8825 C   0  0  0  0  0  0  0  0  0  0  0  0
  -13.9085    0.0175    9.0153 C   0  0  0  0  0  0  0  0  0  0  0  0
  -13.1162   -0.8087    7.9668 C   0  0  0  0  0  0  0  0  0  0  0  0
  -11.6680   -0.6311    8.0099 N   0  0  0  0  0  0  0  0  0  0  0  0
  -10.8044    0.6253    7.7676 C   0  0  0  0  0  0  0  0  0  0  0  0
  -11.1175    1.7312    7.5715 O   0  0  0  0  0  0  0  0  0  0  0  0
   -9.3610    0.2561    7.8415 C   0  0  0  0  0  0  0  0  0  0  0  0
   -8.8623   -0.8194    7.2198 C   0  0  0  0  0  0  0  0  0  0  0  0
   -7.4173   -0.9855    7.2392 C   0  0  0  0  0  0  0  0  0  0  0  0
   -6.8049   -1.9679    6.4657 C   0  0  0  0  0  0  0  0  0  0  0  0
   -5.4137   -2.0971    6.4736 C   0  0  0  0  0  0  0  0  0  0  0  0
   -4.7315   -3.0407    5.5563 C   0  0  0  0  0  0  0  0  0  0  0  0
   -4.6375   -1.3005    7.3089 C   0  0  0  0  0  0  0  0  0  0  0  0
   -5.2485   -0.3288    8.0809 C   0  0  0  0  0  0  0  0  0  0  0  0
   -6.6262   -0.1398    8.0130 C   0  0  0  0  0  0  0  0  0  0  0  0
   -7.1284    0.8927    8.7436 O   0  0  0  0  0  0  0  0  0  0  0  0
   -8.4967    1.2693    8.5245 C   0  0  0  0  0  0  0  0  0  0  0  0
  -13.8546   -0.0697    6.8170 C   0  0  0  0  0  0  0  0  0  0  0  0
  1  2  2  0
  2  3  1  0
  3  4  1  0
  4  5  1  0
  5  6  1  0
  6  7  2  0
  6  8  1  0
  8  9  2  0
  9 10  1  0
 10 11  2  0
 11 12  1  0
 12 13  1  0
 12 14  2  0
 14 15  1  0
 15 16  2  0
 16 17  1  0
 17 18  1  0
  4 19  1  0
 19  2  1  0
 18  8  1  0
 16 10  1  0
M  END
>  <smiles>  (13) 
C57830-P44

>  <fragmenstein_error>  (13) 


>  <ref_pdb>  (13) 
103

>  <HIPPO Compound ID>  (13) 
32354

>  <fragmenstein_runtime>  (13) 
4.754339

>  <Energy>  (13) 
46.02263

>  <fragmenstein_outcome>  (13) 
acceptable

>  <tags>  (13) 
{'fragmenstein_placed', 'openbind_d68ev3c_c1_knitwork_impure'}

>  <HIPPO Pose ID>  (13) 
46126

>  <inchikey>  (13) 
VEPAAUANNYSNBE-UHFFFAOYSA-N

>  <alias>  (13) 
C=C1CC(NC(=O)C2=Cc3cc(C)ccc3OC2)C1

>  <scratch_subdir>  (13) 
/opt/xchem-fragalysis-2/maxwin/BulkDock/SCRATCH/511020/C57830-P44

>  <fragmenstein_mode>  (13) 
expansion

$$$$
CC(C)S(=O)(=O)C(C#N)=Cc1c[nH]cn1
     RDKit          3D

 15 15  0  0  0  0  0  0  0  0999 V2000
  -11.4091  -26.0526   26.5469 C   0  0  0  0  0  0  0  0  0  0  0  0
  -12.7330  -26.0313   27.2595 C   0  0  0  0  0  0  0  0  0  0  0  0
  -13.8660  -25.9489   26.2292 C   0  0  0  0  0  0  0  0  0  0  0  0
  -12.8672  -24.6818   28.4047 S   0  0  0  0  0  0  0  0  0  0  0  0
  -12.4341  -23.4839   27.7144 O   0  0  0  0  0  0  0  0  0  0  0  0
  -14.2157  -24.7695   28.9416 O   0  0  0  0  0  0  0  0  0  0  0  0
  -11.8150  -24.9434   29.7267 C   0  0  0  0  0  0  0  0  0  0  0  0
  -11.2636  -26.2302   29.9215 C   0  0  0  0  0  0  0  0  0  0  0  0
  -10.8639  -27.3163   30.0222 N   0  0  0  0  0  0  0  0  0  0  0  0
  -11.7708  -23.9265   30.6047 C   0  0  0  0  0  0  0  0  0  0  0  0
  -11.1174  -23.9691   31.8485 C   0  0  0  0  0  0  0  0  0  0  0  0
  -11.1411  -23.0220   32.8380 C   0  0  0  0  0  0  0  0  0  0  0  0
  -10.3563  -23.5553   33.8209 N   0  0  0  0  0  0  0  0  0  0  0  0
   -9.9426  -24.7881   33.3964 C   0  0  0  0  0  0  0  0  0  0  0  0
  -10.3582  -25.0437   32.1866 N   0  0  0  0  0  0  0  0  0  0  0  0
  1  2  1  0
  2  3  1  0
  2  4  1  0
  4  5  2  0
  4  6  2  0
  4  7  1  0
  7  8  1  0
  8  9  3  0
  7 10  2  3
 10 11  1  0
 11 12  2  0
 12 13  1  0
 13 14  1  0
 14 15  2  0
 15 11  1  0
M  END
>  <smiles>  (14) 
C51718-P35

>  <fragmenstein_error>  (14) 


>  <ref_pdb>  (14) 
103

>  <HIPPO Compound ID>  (14) 
28379

>  <fragmenstein_runtime>  (14) 
1.383128

>  <Energy>  (14) 
-35.818426

>  <fragmenstein_outcome>  (14) 
acceptable

>  <tags>  (14) 
{'fragmenstein_placed', 'openbind_d68ev3c_c1_knitwork_impure'}

>  <HIPPO Pose ID>  (14) 
46182

>  <inchikey>  (14) 
VZHJGLWWMHSCBE-UHFFFAOYSA-N

>  <alias>  (14) 
CC(C)S(=O)(=O)C(C#N)=Cc1c[nH]cn1

>  <scratch_subdir>  (14) 
/opt/xchem-fragalysis-2/maxwin/BulkDock/SCRATCH/511020/C51718-P35

>  <fragmenstein_mode>  (14) 
expansion

$$$$
F[C@H](OC(F)(F)F)C(F)(F)n1ccnc1
     RDKit          3D

 15 15  0  0  0  0  0  0  0  0999 V2000
  -11.0567  -25.2145   27.6716 F   0  0  0  0  0  0  0  0  0  0  0  0
  -11.8602  -24.8457   28.7164 C   0  0  2  0  0  0  0  0  0  0  0  0
  -11.1976  -23.7594   29.3276 O   0  0  0  0  0  0  0  0  0  0  0  0
  -11.9928  -23.1261   30.3000 C   0  0  0  0  0  0  0  0  0  0  0  0
  -11.5482  -21.8654   30.4552 F   0  0  0  0  0  0  0  0  0  0  0  0
  -13.2763  -23.0874   29.9135 F   0  0  0  0  0  0  0  0  0  0  0  0
  -11.8847  -23.7696   31.4677 F   0  0  0  0  0  0  0  0  0  0  0  0
  -12.1578  -26.0768   29.6116 C   0  0  0  0  0  0  0  0  0  0  0  0
  -12.7418  -27.0326   28.8171 F   0  0  0  0  0  0  0  0  0  0  0  0
  -13.1424  -25.7298   30.4934 F   0  0  0  0  0  0  0  0  0  0  0  0
  -11.0241  -26.6476   30.3122 N   0  0  0  0  0  0  0  0  0  0  0  0
  -10.2121  -27.6531   29.8624 C   0  0  0  0  0  0  0  0  0  0  0  0
   -9.4286  -27.9873   30.9401 C   0  0  0  0  0  0  0  0  0  0  0  0
   -9.7294  -27.2089   32.0198 N   0  0  0  0  0  0  0  0  0  0  0  0
  -10.6800  -26.4056   31.6106 C   0  0  0  0  0  0  0  0  0  0  0  0
  2  1  1  6
  2  3  1  0
  3  4  1  0
  4  5  1  0
  4  6  1  0
  4  7  1  0
  2  8  1  0
  8  9  1  0
  8 10  1  0
  8 11  1  0
 11 12  1  0
 12 13  2  0
 13 14  1  0
 14 15  2  0
 15 11  1  0
M  END
>  <smiles>  (15) 
C51734-P35

>  <fragmenstein_error>  (15) 


>  <ref_pdb>  (15) 
103

>  <HIPPO Compound ID>  (15) 
63571

>  <fragmenstein_runtime>  (15) 
1.139014

>  <Energy>  (15) 
6.077227

>  <fragmenstein_outcome>  (15) 
acceptable

>  <tags>  (15) 
{'fragmenstein_placed', 'openbind_d68ev3c_c1_knitwork_impure'}

>  <HIPPO Pose ID>  (15) 
46189

>  <inchikey>  (15) 
HLRNLSXDCVKTEN-UHFFFAOYSA-N

>  <alias>  (15) 
F[C@H](OC(F)(F)F)C(F)(F)n1ccnc1

>  <scratch_subdir>  (15) 
/opt/xchem-fragalysis-2/maxwin/BulkDock/SCRATCH/511020/C51734-P35

>  <fragmenstein_mode>  (15) 
expansion

$$$$
CCN(C)S(=O)(=O)c1c[nH]cn1
     RDKit          3D

 12 12  0  0  0  0  0  0  0  0999 V2000
  -11.5797  -23.8671   26.7641 C   0  0  0  0  0  0  0  0  0  0  0  0
  -12.3051  -24.7836   27.7120 C   0  0  0  0  0  0  0  0  0  0  0  0
  -11.6148  -24.8242   29.0209 N   0  0  0  0  0  0  0  0  0  0  0  0
  -11.5507  -26.1991   29.5764 C   0  0  0  0  0  0  0  0  0  0  0  0
  -12.1757  -23.6312   30.1261 S   0  0  0  0  0  0  0  0  0  0  0  0
  -13.5633  -23.9079   30.4232 O   0  0  0  0  0  0  0  0  0  0  0  0
  -11.7833  -22.3204   29.6494 O   0  0  0  0  0  0  0  0  0  0  0  0
  -11.3554  -23.8143   31.6464 C   0  0  0  0  0  0  0  0  0  0  0  0
  -11.3821  -22.9243   32.6989 C   0  0  0  0  0  0  0  0  0  0  0  0
  -10.5570  -23.4723   33.6395 N   0  0  0  0  0  0  0  0  0  0  0  0
  -10.1118  -24.6724   33.1580 C   0  0  0  0  0  0  0  0  0  0  0  0
  -10.5502  -24.9017   31.9473 N   0  0  0  0  0  0  0  0  0  0  0  0
  1  2  1  0
  2  3  1  0
  3  4  1  0
  3  5  1  0
  5  6  2  0
  5  7  2  0
  5  8  1  0
  8  9  2  0
  9 10  1  0
 10 11  1  0
 11 12  2  0
 12  8  1  0
M  END
>  <smiles>  (16) 
C51747-P35

>  <fragmenstein_error>  (16) 


>  <ref_pdb>  (16) 
103

>  <HIPPO Compound ID>  (16) 
22925

>  <fragmenstein_runtime>  (16) 
2.055437

>  <Energy>  (16) 
31.594832

>  <fragmenstein_outcome>  (16) 
acceptable

>  <tags>  (16) 
{'fragmenstein_placed', 'openbind_d68ev3c_c1_knitwork_impure'}

>  <HIPPO Pose ID>  (16) 
46195

>  <inchikey>  (16) 
QZSHTQBMYDQFEM-UHFFFAOYSA-N

>  <alias>  (16) 
CCN(C)S(=O)(=O)c1c[nH]cn1

>  <scratch_subdir>  (16) 
/opt/xchem-fragalysis-2/maxwin/BulkDock/SCRATCH/511020/C51747-P35

>  <fragmenstein_mode>  (16) 
expansion

$$$$
O=C(N[C@H]1CCNC12CC2)C1=Cc2cc(F)ccc2OC1
     RDKit          3D

 21 24  0  0  0  0  0  0  0  0999 V2000
  -10.0924    2.3949    6.1730 O   0  0  0  0  0  0  0  0  0  0  0  0
  -10.0066    1.4644    6.8635 C   0  0  0  0  0  0  0  0  0  0  0  0
  -11.0557    0.7796    7.7396 N   0  0  0  0  0  0  0  0  0  0  0  0
  -12.4646    1.0347    7.8838 C   0  0  1  0  0  0  0  0  0  0  0  0
  -13.2427    0.4031    6.7372 C   0  0  0  0  0  0  0  0  0  0  0  0
  -13.4172   -1.0581    7.1606 C   0  0  0  0  0  0  0  0  0  0  0  0
  -13.2813   -1.1045    8.6238 N   0  0  0  0  0  0  0  0  0  0  0  0
  -12.9937    0.2593    9.0623 C   0  0  0  0  0  0  0  0  0  0  0  0
  -13.8771    0.9210   10.0880 C   0  0  0  0  0  0  0  0  0  0  0  0
  -12.4766    0.5187   10.4523 C   0  0  0  0  0  0  0  0  0  0  0  0
   -8.7044    0.7930    7.0956 C   0  0  0  0  0  0  0  0  0  0  0  0
   -8.4583   -0.4936    6.8089 C   0  0  0  0  0  0  0  0  0  0  0  0
   -7.0741   -0.9339    6.9846 C   0  0  0  0  0  0  0  0  0  0  0  0
   -6.5745   -2.0886    6.3826 C   0  0  0  0  0  0  0  0  0  0  0  0
   -5.2273   -2.4116    6.5418 C   0  0  0  0  0  0  0  0  0  0  0  0
   -4.7100   -3.4536    5.8886 F   0  0  0  0  0  0  0  0  0  0  0  0
   -4.3902   -1.6718    7.3609 C   0  0  0  0  0  0  0  0  0  0  0  0
   -4.9015   -0.5609    8.0107 C   0  0  0  0  0  0  0  0  0  0  0  0
   -6.2079   -0.1516    7.7561 C   0  0  0  0  0  0  0  0  0  0  0  0
   -6.5797    1.0469    8.2931 O   0  0  0  0  0  0  0  0  0  0  0  0
   -7.6572    1.7141    7.6221 C   0  0  0  0  0  0  0  0  0  0  0  0
  1  2  2  0
  2  3  1  0
  4  3  1  6
  4  5  1  0
  5  6  1  0
  6  7  1  0
  7  8  1  0
  8  9  1  0
  9 10  1  0
  2 11  1  0
 11 12  2  0
 12 13  1  0
 13 14  2  0
 14 15  1  0
 15 16  1  0
 15 17  2  0
 17 18  1  0
 18 19  2  0
 19 20  1  0
 20 21  1  0
  8  4  1  0
 21 11  1  0
 10  8  1  0
 19 13  1  0
M  END
>  <smiles>  (17) 
C57876-P9

>  <fragmenstein_error>  (17) 


>  <ref_pdb>  (17) 
30

>  <HIPPO Compound ID>  (17) 
46293

>  <fragmenstein_runtime>  (17) 
4.624207

>  <Energy>  (17) 
17.45354

>  <fragmenstein_outcome>  (17) 
acceptable

>  <tags>  (17) 
{'fragmenstein_placed', 'openbind_d68ev3c_c1_knitwork_impure'}

>  <HIPPO Pose ID>  (17) 
48381

>  <inchikey>  (17) 
JVPFAMUYWOOIGX-UHFFFAOYSA-N

>  <alias>  (17) 
O=C(N[C@H]1CCNC12CC2)C1=Cc2cc(F)ccc2OC1

>  <scratch_subdir>  (17) 
/opt/xchem-fragalysis-2/maxwin/BulkDock/SCRATCH/511021/C57876-P9

>  <fragmenstein_mode>  (17) 
expansion

$$$$
CN(C[C@H]1CCCN1)S(=O)(=O)C1=Cc2cc(Cl)ccc2OC1
     RDKit          3D

 22 24  0  0  0  0  0  0  0  0999 V2000
  -11.5732   -0.4826    9.7322 C   0  0  0  0  0  0  0  0  0  0  0  0
  -11.5995    0.8876    9.1658 N   0  0  0  0  0  0  0  0  0  0  0  0
  -12.9674    1.5025    9.3001 C   0  0  0  0  0  0  0  0  0  0  0  0
  -12.9319    2.8580   10.0469 C   0  0  1  0  0  0  0  0  0  0  0  0
  -12.2593    2.7864   11.4210 C   0  0  0  0  0  0  0  0  0  0  0  0
  -10.9902    3.5981   11.2611 C   0  0  0  0  0  0  0  0  0  0  0  0
  -11.3905    4.6465   10.2487 C   0  0  0  0  0  0  0  0  0  0  0  0
  -12.2487    3.9367    9.3002 N   0  0  0  0  0  0  0  0  0  0  0  0
  -10.9520    0.9759    7.5781 S   0  0  0  0  0  0  0  0  0  0  0  0
  -10.9385    2.3856    7.2355 O   0  0  0  0  0  0  0  0  0  0  0  0
  -11.7217    0.0555    6.7663 O   0  0  0  0  0  0  0  0  0  0  0  0
   -9.3033    0.4572    7.7010 C   0  0  0  0  0  0  0  0  0  0  0  0
   -8.8978   -0.6845    7.1313 C   0  0  0  0  0  0  0  0  0  0  0  0
   -7.4660   -0.9535    7.1606 C   0  0  0  0  0  0  0  0  0  0  0  0
   -6.9032   -1.9389    6.3562 C   0  0  0  0  0  0  0  0  0  0  0  0
   -5.5218   -2.1180    6.3594 C   0  0  0  0  0  0  0  0  0  0  0  0
   -4.8151   -3.1474    5.2078 Cl  0  0  0  0  0  0  0  0  0  0  0  0
   -4.6986   -1.4133    7.2235 C   0  0  0  0  0  0  0  0  0  0  0  0
   -5.2637   -0.4498    8.0431 C   0  0  0  0  0  0  0  0  0  0  0  0
   -6.6299   -0.1811    7.9673 C   0  0  0  0  0  0  0  0  0  0  0  0
   -7.0872    0.8567    8.7206 O   0  0  0  0  0  0  0  0  0  0  0  0
   -8.3795    1.3939    8.3921 C   0  0  0  0  0  0  0  0  0  0  0  0
  1  2  1  0
  2  3  1  0
  4  3  1  6
  4  5  1  0
  5  6  1  0
  6  7  1  0
  7  8  1  0
  2  9  1  0
  9 10  2  0
  9 11  2  0
  9 12  1  0
 12 13  2  0
 13 14  1  0
 14 15  2  0
 15 16  1  0
 16 17  1  0
 16 18  2  0
 18 19  1  0
 19 20  2  0
 20 21  1  0
 21 22  1  0
  8  4  1  0
 22 12  1  0
 20 14  1  0
M  END
>  <smiles>  (18) 
C42175-P9

>  <fragmenstein_error>  (18) 


>  <ref_pdb>  (18) 
30

>  <HIPPO Compound ID>  (18) 
20035

>  <fragmenstein_runtime>  (18) 
3.043354

>  <Energy>  (18) 
-35.100452

>  <fragmenstein_outcome>  (18) 
acceptable

>  <tags>  (18) 
{'fragmenstein_placed', 'openbind_d68ev3c_c1_knitwork_impure'}

>  <HIPPO Pose ID>  (18) 
48385

>  <inchikey>  (18) 
VMLWQKURQSPMDX-UHFFFAOYSA-N

>  <alias>  (18) 
CN(C[C@H]1CCCN1)S(=O)(=O)C1=Cc2cc(Cl)ccc2OC1

>  <scratch_subdir>  (18) 
/opt/xchem-fragalysis-2/maxwin/BulkDock/SCRATCH/511021/C42175-P9

>  <fragmenstein_mode>  (18) 
expansion

$$$$
C=CCCC[C@](C)(N)c1ccccn1
     RDKit          3D

 14 14  0  0  0  0  0  0  0  0999 V2000
   13.9787   -5.3147   22.6260 C   0  0  0  0  0  0  0  0  0  0  0  0
   14.2616   -4.0316   22.3720 C   0  0  0  0  0  0  0  0  0  0  0  0
   15.4928   -3.5784   21.6489 C   0  0  0  0  0  0  0  0  0  0  0  0
   15.1981   -3.0738   20.2337 C   0  0  0  0  0  0  0  0  0  0  0  0
   14.6194   -4.1726   19.3290 C   0  0  0  0  0  0  0  0  0  0  0  0
   14.4942   -3.8267   17.8251 C   0  0  2  0  0  0  0  0  0  0  0  0
   13.6692   -2.5636   17.5580 C   0  0  0  0  0  0  0  0  0  0  0  0
   13.7238   -4.9523   17.2512 N   0  0  0  0  0  0  0  0  0  0  0  0
   15.8740   -3.7333   17.1385 C   0  0  0  0  0  0  0  0  0  0  0  0
   16.6561   -2.5785   17.1935 C   0  0  0  0  0  0  0  0  0  0  0  0
   17.8705   -2.5397   16.5100 C   0  0  0  0  0  0  0  0  0  0  0  0
   18.2771   -3.6441   15.7755 C   0  0  0  0  0  0  0  0  0  0  0  0
   17.4496   -4.7501   15.7564 C   0  0  0  0  0  0  0  0  0  0  0  0
   16.2734   -4.8187   16.4163 N   0  0  0  0  0  0  0  0  0  0  0  0
  1  2  2  0
  2  3  1  0
  3  4  1  0
  4  5  1  0
  5  6  1  0
  6  7  1  1
  6  8  1  0
  6  9  1  0
  9 10  2  0
 10 11  1  0
 11 12  2  0
 12 13  1  0
 13 14  2  0
 14  9  1  0
M  END
>  <smiles>  (19) 
C63172-P60

>  <fragmenstein_error>  (19) 


>  <ref_pdb>  (19) 
30

>  <HIPPO Compound ID>  (19) 
36373

>  <fragmenstein_runtime>  (19) 
1.960225

>  <Energy>  (19) 
51.810967

>  <fragmenstein_outcome>  (19) 
acceptable

>  <tags>  (19) 
{'fragmenstein_placed', 'openbind_d68ev3c_c1_knitwork_impure'}

>  <HIPPO Pose ID>  (19) 
48495

>  <inchikey>  (19) 
MJWUGDOZEHHAGH-UHFFFAOYSA-N

>  <alias>  (19) 
C=CCCC[C@](C)(N)c1ccccn1

>  <scratch_subdir>  (19) 
/opt/xchem-fragalysis-2/maxwin/BulkDock/SCRATCH/511021/C63172-P60

>  <fragmenstein_mode>  (19) 
expansion

$$$$
C1CCN[C@H]([C@@H]2CCOC2)CC1
     RDKit          3D

 12 13  0  0  0  0  0  0  0  0999 V2000
  -11.6649  -29.7353   10.5321 C   0  0  0  0  0  0  0  0  0  0  0  0
  -12.2878  -28.5904    9.7389 C   0  0  0  0  0  0  0  0  0  0  0  0
  -11.5485  -27.2585    9.8676 C   0  0  0  0  0  0  0  0  0  0  0  0
  -11.0389  -26.9007   11.1864 N   0  0  0  0  0  0  0  0  0  0  0  0
  -11.9542  -27.1636   12.2992 C   0  0  2  0  0  0  0  0  0  0  0  0
  -11.7875  -26.0377   13.3594 C   0  0  2  0  0  0  0  0  0  0  0  0
  -10.4498  -25.9986   14.0794 C   0  0  0  0  0  0  0  0  0  0  0  0
  -10.7185  -26.7599   15.3539 C   0  0  0  0  0  0  0  0  0  0  0  0
  -12.0728  -26.4596   15.7077 O   0  0  0  0  0  0  0  0  0  0  0  0
  -12.7949  -26.1658   14.5019 C   0  0  0  0  0  0  0  0  0  0  0  0
  -11.6619  -28.5792   12.8414 C   0  0  0  0  0  0  0  0  0  0  0  0
  -12.1454  -29.7431   11.9772 C   0  0  0  0  0  0  0  0  0  0  0  0
  1  2  1  0
  2  3  1  0
  3  4  1  0
  4  5  1  0
  5  6  1  0
  6  7  1  1
  7  8  1  0
  8  9  1  0
  9 10  1  0
  5 11  1  1
 11 12  1  0
 12  1  1  0
 10  6  1  0
M  END
>  <smiles>  (20) 
C53688-P28

>  <fragmenstein_error>  (20) 


>  <ref_pdb>  (20) 
30

>  <HIPPO Compound ID>  (20) 
65227

>  <fragmenstein_runtime>  (20) 
6.800226

>  <Energy>  (20) 
20.662776

>  <fragmenstein_outcome>  (20) 
acceptable

>  <tags>  (20) 
{'fragmenstein_placed', 'openbind_d68ev3c_c1_knitwork_impure'}

>  <HIPPO Pose ID>  (20) 
48621

>  <inchikey>  (20) 
LSBFLPXDYJFKSX-UHFFFAOYSA-N

>  <alias>  (20) 
C1CCN[C@H]([C@@H]2CCOC2)CC1

>  <scratch_subdir>  (20) 
/opt/xchem-fragalysis-2/maxwin/BulkDock/SCRATCH/511021/C53688-P28

>  <fragmenstein_mode>  (20) 
expansion

$$$$
C1=CC[C@H]([C@H]2CCOC2)NC1
     RDKit          3D

 11 12  0  0  0  0  0  0  0  0999 V2000
  -11.8416  -28.9480   10.2450 C   0  0  0  0  0  0  0  0  0  0  0  0
  -12.1026  -29.3512   11.4959 C   0  0  0  0  0  0  0  0  0  0  0  0
  -11.8808  -28.4344   12.6638 C   0  0  0  0  0  0  0  0  0  0  0  0
  -11.0322  -27.1885   12.3054 C   0  0  2  0  0  0  0  0  0  0  0  0
  -11.0205  -26.0564   13.3644 C   0  0  1  0  0  0  0  0  0  0  0  0
  -12.3179  -25.2778   13.4932 C   0  0  0  0  0  0  0  0  0  0  0  0
  -13.0635  -25.9793   14.6057 C   0  0  0  0  0  0  0  0  0  0  0  0
  -12.0898  -26.6420   15.4206 O   0  0  0  0  0  0  0  0  0  0  0  0
  -10.8048  -26.5425   14.7881 C   0  0  0  0  0  0  0  0  0  0  0  0
  -11.4426  -26.6211   11.0073 N   0  0  0  0  0  0  0  0  0  0  0  0
  -11.3175  -27.5833    9.9153 C   0  0  0  0  0  0  0  0  0  0  0  0
  1  2  2  0
  2  3  1  0
  4  3  1  1
  4  5  1  0
  5  6  1  1
  6  7  1  0
  7  8  1  0
  8  9  1  0
  4 10  1  0
 10 11  1  0
 11  1  1  0
  9  5  1  0
M  END
>  <smiles>  (21) 
C53694-P28

>  <fragmenstein_error>  (21) 


>  <ref_pdb>  (21) 
30

>  <HIPPO Compound ID>  (21) 
58538

>  <fragmenstein_runtime>  (21) 
1.688289

>  <Energy>  (21) 
23.22302

>  <fragmenstein_outcome>  (21) 
acceptable

>  <tags>  (21) 
{'fragmenstein_placed', 'openbind_d68ev3c_c1_knitwork_impure'}

>  <HIPPO Pose ID>  (21) 
48623

>  <inchikey>  (21) 
OUGSTIBRCIEVJE-UHFFFAOYSA-N

>  <alias>  (21) 
C1=CC[C@H]([C@H]2CCOC2)NC1

>  <scratch_subdir>  (21) 
/opt/xchem-fragalysis-2/maxwin/BulkDock/SCRATCH/511021/C53694-P28

>  <fragmenstein_mode>  (21) 
expansion

$$$$
CS(=O)(=O)C[C@H](O)[C@H]1CCCNC1
     RDKit          3D

 13 13  0  0  0  0  0  0  0  0999 V2000
   13.9790    1.6091   11.4548 C   0  0  0  0  0  0  0  0  0  0  0  0
   15.0505    1.8573   12.8517 S   0  0  0  0  0  0  0  0  0  0  0  0
   16.4006    1.9733   12.3353 O   0  0  0  0  0  0  0  0  0  0  0  0
   14.4763    2.9018   13.6803 O   0  0  0  0  0  0  0  0  0  0  0  0
   14.9627    0.3376   13.7723 C   0  0  0  0  0  0  0  0  0  0  0  0
   13.5711    0.0925   14.3517 C   0  0  2  0  0  0  0  0  0  0  0  0
   13.3359    0.9434   15.4764 O   0  0  0  0  0  0  0  0  0  0  0  0
   13.4229   -1.3856   14.7750 C   0  0  1  0  0  0  0  0  0  0  0  0
   14.2314   -1.7229   16.0394 C   0  0  0  0  0  0  0  0  0  0  0  0
   14.0368   -3.1761   16.4548 C   0  0  0  0  0  0  0  0  0  0  0  0
   12.5635   -3.5571   16.4950 C   0  0  0  0  0  0  0  0  0  0  0  0
   11.8455   -3.1891   15.2805 N   0  0  0  0  0  0  0  0  0  0  0  0
   11.9501   -1.7630   14.9887 C   0  0  0  0  0  0  0  0  0  0  0  0
  1  2  1  0
  2  3  2  0
  2  4  2  0
  2  5  1  0
  5  6  1  0
  6  7  1  1
  6  8  1  0
  8  9  1  1
  9 10  1  0
 10 11  1  0
 11 12  1  0
 12 13  1  0
 13  8  1  0
M  END
>  <smiles>  (22) 
C40679-P111

>  <fragmenstein_error>  (22) 


>  <ref_pdb>  (22) 
30

>  <HIPPO Compound ID>  (22) 
35558

>  <fragmenstein_runtime>  (22) 
78.686019

>  <Energy>  (22) 
6.179716

>  <fragmenstein_outcome>  (22) 
acceptable

>  <tags>  (22) 
{'fragmenstein_placed', 'openbind_d68ev3c_c1_knitwork_impure'}

>  <HIPPO Pose ID>  (22) 
49747

>  <inchikey>  (22) 
INOPOZQFLHAKEA-UHFFFAOYSA-N

>  <alias>  (22) 
CS(=O)(=O)C[C@H](O)[C@H]1CCCNC1

>  <scratch_subdir>  (22) 
/opt/xchem-fragalysis-2/maxwin/BulkDock/SCRATCH/511021/C40679-P111

>  <fragmenstein_mode>  (22) 
expansion

$$$$
CS(=O)(=O)C[C@H](O)C1CCNCC1
     RDKit          3D

 13 13  0  0  0  0  0  0  0  0999 V2000
   14.0704    1.7663   11.4364 C   0  0  0  0  0  0  0  0  0  0  0  0
   15.1843    1.8867   12.8196 S   0  0  0  0  0  0  0  0  0  0  0  0
   16.5297    1.9135   12.2795 O   0  0  0  0  0  0  0  0  0  0  0  0
   14.7102    2.9458   13.6919 O   0  0  0  0  0  0  0  0  0  0  0  0
   14.9886    0.3441   13.6875 C   0  0  0  0  0  0  0  0  0  0  0  0
   13.6092    0.2448   14.3273 C   0  0  2  0  0  0  0  0  0  0  0  0
   13.5803    0.9488   15.5707 O   0  0  0  0  0  0  0  0  0  0  0  0
   13.2133   -1.2239   14.5485 C   0  0  0  0  0  0  0  0  0  0  0  0
   14.0739   -1.9533   15.6001 C   0  0  0  0  0  0  0  0  0  0  0  0
   13.2532   -2.8339   16.5453 C   0  0  0  0  0  0  0  0  0  0  0  0
   12.2364   -3.5938   15.8451 N   0  0  0  0  0  0  0  0  0  0  0  0
   11.3534   -2.8129   14.9877 C   0  0  0  0  0  0  0  0  0  0  0  0
   11.7297   -1.3408   14.8980 C   0  0  0  0  0  0  0  0  0  0  0  0
  1  2  1  0
  2  3  2  0
  2  4  2  0
  2  5  1  0
  5  6  1  0
  6  7  1  1
  6  8  1  0
  8  9  1  0
  9 10  1  0
 10 11  1  0
 11 12  1  0
 12 13  1  0
 13  8  1  0
M  END
>  <smiles>  (23) 
C29997-P111

>  <fragmenstein_error>  (23) 


>  <ref_pdb>  (23) 
30

>  <HIPPO Compound ID>  (23) 
57354

>  <fragmenstein_runtime>  (23) 
92.07853

>  <Energy>  (23) 
10.064852

>  <fragmenstein_outcome>  (23) 
acceptable

>  <tags>  (23) 
{'fragmenstein_placed', 'openbind_d68ev3c_c1_knitwork_impure'}

>  <HIPPO Pose ID>  (23) 
49753

>  <inchikey>  (23) 
VAVNRWQONNXPLK-UHFFFAOYSA-N

>  <alias>  (23) 
CS(=O)(=O)C[C@H](O)C1CCNCC1

>  <scratch_subdir>  (23) 
/opt/xchem-fragalysis-2/maxwin/BulkDock/SCRATCH/511021/C29997-P111

>  <fragmenstein_mode>  (23) 
expansion

$$$$
CS(=O)(=O)CCO[C@H]1CCCNC1
     RDKit          3D

 13 13  0  0  0  0  0  0  0  0999 V2000
   13.9706    1.8067   11.4331 C   0  0  0  0  0  0  0  0  0  0  0  0
   15.0834    2.0484   12.7989 S   0  0  0  0  0  0  0  0  0  0  0  0
   16.4287    1.8752   12.2836 O   0  0  0  0  0  0  0  0  0  0  0  0
   14.7002    3.2699   13.4771 O   0  0  0  0  0  0  0  0  0  0  0  0
   14.7616    0.6907   13.8913 C   0  0  0  0  0  0  0  0  0  0  0  0
   13.2944    0.5935   14.2706 C   0  0  0  0  0  0  0  0  0  0  0  0
   13.0531   -0.4293   15.2332 O   0  0  0  0  0  0  0  0  0  0  0  0
   13.2953   -1.7498   14.7363 C   0  0  1  0  0  0  0  0  0  0  0  0
   14.3861   -2.3383   15.6275 C   0  0  0  0  0  0  0  0  0  0  0  0
   13.8110   -2.8496   16.9354 C   0  0  0  0  0  0  0  0  0  0  0  0
   12.6661   -3.8109   16.6750 C   0  0  0  0  0  0  0  0  0  0  0  0
   11.5667   -3.1806   15.9551 N   0  0  0  0  0  0  0  0  0  0  0  0
   11.9789   -2.5517   14.7004 C   0  0  0  0  0  0  0  0  0  0  0  0
  1  2  1  0
  2  3  2  0
  2  4  2  0
  2  5  1  0
  5  6  1  0
  6  7  1  0
  8  7  1  1
  8  9  1  0
  9 10  1  0
 10 11  1  0
 11 12  1  0
 12 13  1  0
 13  8  1  0
M  END
>  <smiles>  (24) 
C62233-P111

>  <fragmenstein_error>  (24) 


>  <ref_pdb>  (24) 
30

>  <HIPPO Compound ID>  (24) 
8797

>  <fragmenstein_runtime>  (24) 
75.480155

>  <Energy>  (24) 
29.24214

>  <fragmenstein_outcome>  (24) 
acceptable

>  <tags>  (24) 
{'fragmenstein_placed', 'openbind_d68ev3c_c1_knitwork_impure'}

>  <HIPPO Pose ID>  (24) 
49755

>  <inchikey>  (24) 
VHRDLUIKGGHYOJ-UHFFFAOYSA-N

>  <alias>  (24) 
CS(=O)(=O)CCO[C@H]1CCCNC1

>  <scratch_subdir>  (24) 
/opt/xchem-fragalysis-2/maxwin/BulkDock/SCRATCH/511021/C62233-P111

>  <fragmenstein_mode>  (24) 
expansion

$$$$
CS(=O)(=O)C[C@H](O)[C@@H]1CCCCN1
     RDKit          3D

 13 13  0  0  0  0  0  0  0  0999 V2000
   13.9745    1.7920   11.4027 C   0  0  0  0  0  0  0  0  0  0  0  0
   15.1167    1.9010   12.7615 S   0  0  0  0  0  0  0  0  0  0  0  0
   16.4487    1.9737   12.1940 O   0  0  0  0  0  0  0  0  0  0  0  0
   14.6376    2.9237   13.6741 O   0  0  0  0  0  0  0  0  0  0  0  0
   14.9723    0.3346   13.5876 C   0  0  0  0  0  0  0  0  0  0  0  0
   13.6300    0.2063   14.3004 C   0  0  2  0  0  0  0  0  0  0  0  0
   13.6552    0.9338   15.5387 O   0  0  0  0  0  0  0  0  0  0  0  0
   13.3141   -1.2835   14.5899 C   0  0  2  0  0  0  0  0  0  0  0  0
   11.8426   -1.4648   14.9785 C   0  0  0  0  0  0  0  0  0  0  0  0
   11.5786   -2.9406   15.2191 C   0  0  0  0  0  0  0  0  0  0  0  0
   12.5366   -3.5161   16.2605 C   0  0  0  0  0  0  0  0  0  0  0  0
   13.6130   -2.5326   16.6917 C   0  0  0  0  0  0  0  0  0  0  0  0
   14.2622   -1.8575   15.5688 N   0  0  0  0  0  0  0  0  0  0  0  0
  1  2  1  0
  2  3  2  0
  2  4  2  0
  2  5  1  0
  5  6  1  0
  6  7  1  1
  6  8  1  0
  8  9  1  1
  9 10  1  0
 10 11  1  0
 11 12  1  0
 12 13  1  0
 13  8  1  0
M  END
>  <smiles>  (25) 
C40680-P111

>  <fragmenstein_error>  (25) 


>  <ref_pdb>  (25) 
30

>  <HIPPO Compound ID>  (25) 
63572

>  <fragmenstein_runtime>  (25) 
43.514469

>  <Energy>  (25) 
20.213023

>  <fragmenstein_outcome>  (25) 
acceptable

>  <tags>  (25) 
{'fragmenstein_placed', 'openbind_d68ev3c_c1_knitwork_impure'}

>  <HIPPO Pose ID>  (25) 
49756

>  <inchikey>  (25) 
AXBQOMXKAYOIPL-UHFFFAOYSA-N

>  <alias>  (25) 
CS(=O)(=O)C[C@H](O)[C@@H]1CCCCN1

>  <scratch_subdir>  (25) 
/opt/xchem-fragalysis-2/maxwin/BulkDock/SCRATCH/511021/C40680-P111

>  <fragmenstein_mode>  (25) 
expansion

$$$$
CS(=O)(=O)C[C@H](O)C1=CCCC1
     RDKit          3D

 12 12  0  0  0  0  0  0  0  0999 V2000
   13.6758    1.7389   11.6433 C   0  0  0  0  0  0  0  0  0  0  0  0
   14.9411    1.7519   12.8901 S   0  0  0  0  0  0  0  0  0  0  0  0
   16.2155    1.6707   12.2023 O   0  0  0  0  0  0  0  0  0  0  0  0
   14.6603    2.8439   13.8047 O   0  0  0  0  0  0  0  0  0  0  0  0
   14.7013    0.2241   13.7694 C   0  0  0  0  0  0  0  0  0  0  0  0
   13.4903    0.3037   14.6897 C   0  0  2  0  0  0  0  0  0  0  0  0
   13.8009    1.0440   15.8671 O   0  0  0  0  0  0  0  0  0  0  0  0
   13.0592   -1.0582   15.1349 C   0  0  0  0  0  0  0  0  0  0  0  0
   11.8553   -1.6192   14.9583 C   0  0  0  0  0  0  0  0  0  0  0  0
   11.8247   -3.0188   15.4561 C   0  0  0  0  0  0  0  0  0  0  0  0
   13.0761   -3.1095   16.3196 C   0  0  0  0  0  0  0  0  0  0  0  0
   14.0003   -1.9973   15.8312 C   0  0  0  0  0  0  0  0  0  0  0  0
  1  2  1  0
  2  3  2  0
  2  4  2  0
  2  5  1  0
  5  6  1  0
  6  7  1  1
  6  8  1  0
  8  9  2  0
  9 10  1  0
 10 11  1  0
 11 12  1  0
 12  8  1  0
M  END
>  <smiles>  (26) 
C62186-P111

>  <fragmenstein_error>  (26) 


>  <ref_pdb>  (26) 
30

>  <HIPPO Compound ID>  (26) 
32774

>  <fragmenstein_runtime>  (26) 
38.449392

>  <Energy>  (26) 
-4.116685

>  <fragmenstein_outcome>  (26) 
acceptable

>  <tags>  (26) 
{'fragmenstein_placed', 'openbind_d68ev3c_c1_knitwork_impure'}

>  <HIPPO Pose ID>  (26) 
49764

>  <inchikey>  (26) 
VYKRXCKPYISALT-UHFFFAOYSA-N

>  <alias>  (26) 
CS(=O)(=O)C[C@H](O)C1=CCCC1

>  <scratch_subdir>  (26) 
/opt/xchem-fragalysis-2/maxwin/BulkDock/SCRATCH/511021/C62186-P111

>  <fragmenstein_mode>  (26) 
expansion

$$$$
CS(=O)(=O)C[C@H](O)C1=CCCCC1
     RDKit          3D

 13 13  0  0  0  0  0  0  0  0999 V2000
   13.7780    1.7360   11.5353 C   0  0  0  0  0  0  0  0  0  0  0  0
   15.0190    1.8716   12.8006 S   0  0  0  0  0  0  0  0  0  0  0  0
   16.3092    1.7994   12.1418 O   0  0  0  0  0  0  0  0  0  0  0  0
   14.6816    3.0020   13.6471 O   0  0  0  0  0  0  0  0  0  0  0  0
   14.8250    0.3940   13.7686 C   0  0  0  0  0  0  0  0  0  0  0  0
   13.5659    0.4631   14.6225 C   0  0  2  0  0  0  0  0  0  0  0  0
   13.7658    1.2926   15.7653 O   0  0  0  0  0  0  0  0  0  0  0  0
   13.1822   -0.9110   15.1184 C   0  0  0  0  0  0  0  0  0  0  0  0
   12.1034   -1.5513   14.6343 C   0  0  0  0  0  0  0  0  0  0  0  0
   11.6705   -2.9122   15.0734 C   0  0  0  0  0  0  0  0  0  0  0  0
   12.4118   -3.4267   16.3058 C   0  0  0  0  0  0  0  0  0  0  0  0
   13.8770   -3.0303   16.3542 C   0  0  0  0  0  0  0  0  0  0  0  0
   14.0586   -1.5253   16.1851 C   0  0  0  0  0  0  0  0  0  0  0  0
  1  2  1  0
  2  3  2  0
  2  4  2  0
  2  5  1  0
  5  6  1  0
  6  7  1  1
  6  8  1  0
  8  9  2  0
  9 10  1  0
 10 11  1  0
 11 12  1  0
 12 13  1  0
 13  8  1  0
M  END
>  <smiles>  (27) 
C62190-P111

>  <fragmenstein_error>  (27) 


>  <ref_pdb>  (27) 
30

>  <HIPPO Compound ID>  (27) 
47024

>  <fragmenstein_runtime>  (27) 
43.599683

>  <Energy>  (27) 
-6.17512

>  <fragmenstein_outcome>  (27) 
acceptable

>  <tags>  (27) 
{'fragmenstein_placed', 'openbind_d68ev3c_c1_knitwork_impure'}

>  <HIPPO Pose ID>  (27) 
49765

>  <inchikey>  (27) 
BLOGGAJNIGIFFQ-UHFFFAOYSA-N

>  <alias>  (27) 
CS(=O)(=O)C[C@H](O)C1=CCCCC1

>  <scratch_subdir>  (27) 
/opt/xchem-fragalysis-2/maxwin/BulkDock/SCRATCH/511021/C62190-P111

>  <fragmenstein_mode>  (27) 
expansion

$$$$
CS(=O)(=O)C[C@H](O)C1CCSCC1
     RDKit          3D

 13 13  0  0  0  0  0  0  0  0999 V2000
   14.0387    1.7352   11.3981 C   0  0  0  0  0  0  0  0  0  0  0  0
   15.1413    1.9636   12.7756 S   0  0  0  0  0  0  0  0  0  0  0  0
   16.4885    1.9977   12.2407 O   0  0  0  0  0  0  0  0  0  0  0  0
   14.6308    3.0524   13.5881 O   0  0  0  0  0  0  0  0  0  0  0  0
   14.9918    0.4716   13.7307 C   0  0  0  0  0  0  0  0  0  0  0  0
   13.5993    0.3278   14.3354 C   0  0  2  0  0  0  0  0  0  0  0  0
   13.4531    1.1774   15.4728 O   0  0  0  0  0  0  0  0  0  0  0  0
   13.3420   -1.1366   14.7485 C   0  0  0  0  0  0  0  0  0  0  0  0
   14.0866   -1.5133   16.0381 C   0  0  0  0  0  0  0  0  0  0  0  0
   14.0056   -2.9899   16.3767 C   0  0  0  0  0  0  0  0  0  0  0  0
   12.3208   -3.6280   16.4794 S   0  0  0  0  0  0  0  0  0  0  0  0
   11.5423   -2.8720   15.0252 C   0  0  0  0  0  0  0  0  0  0  0  0
   11.8393   -1.3890   14.9179 C   0  0  0  0  0  0  0  0  0  0  0  0
  1  2  1  0
  2  3  2  0
  2  4  2  0
  2  5  1  0
  5  6  1  0
  6  7  1  1
  6  8  1  0
  8  9  1  0
  9 10  1  0
 10 11  1  0
 11 12  1  0
 12 13  1  0
 13  8  1  0
M  END
>  <smiles>  (28) 
C62195-P111

>  <fragmenstein_error>  (28) 


>  <ref_pdb>  (28) 
30

>  <HIPPO Compound ID>  (28) 
62195

>  <fragmenstein_runtime>  (28) 
50.51456

>  <Energy>  (28) 
12.506046

>  <fragmenstein_outcome>  (28) 
acceptable

>  <tags>  (28) 
{'fragmenstein_placed', 'openbind_d68ev3c_c1_knitwork_impure'}

>  <HIPPO Pose ID>  (28) 
49766

>  <inchikey>  (28) 
WQHAXWVTINCHDN-UHFFFAOYSA-N

>  <alias>  (28) 
CS(=O)(=O)C[C@H](O)C1CCSCC1

>  <scratch_subdir>  (28) 
/opt/xchem-fragalysis-2/maxwin/BulkDock/SCRATCH/511021/C62195-P111

>  <fragmenstein_mode>  (28) 
expansion

$$$$
CS(=O)(=O)C[C@H](O)C1CCCCC1
     RDKit          3D

 13 13  0  0  0  0  0  0  0  0999 V2000
   14.0087    1.6947   11.4351 C   0  0  0  0  0  0  0  0  0  0  0  0
   15.1208    1.9278   12.8038 S   0  0  0  0  0  0  0  0  0  0  0  0
   16.4619    1.9876   12.2553 O   0  0  0  0  0  0  0  0  0  0  0  0
   14.6031    3.0042   13.6285 O   0  0  0  0  0  0  0  0  0  0  0  0
   15.0023    0.4254   13.7477 C   0  0  0  0  0  0  0  0  0  0  0  0
   13.6208    0.2564   14.3701 C   0  0  2  0  0  0  0  0  0  0  0  0
   13.4795    1.0954   15.5173 O   0  0  0  0  0  0  0  0  0  0  0  0
   13.3896   -1.2146   14.7709 C   0  0  0  0  0  0  0  0  0  0  0  0
   11.9020   -1.4844   15.0219 C   0  0  0  0  0  0  0  0  0  0  0  0
   11.6856   -2.9693   15.2621 C   0  0  0  0  0  0  0  0  0  0  0  0
   12.5161   -3.4785   16.4362 C   0  0  0  0  0  0  0  0  0  0  0  0
   13.9878   -3.0949   16.3762 C   0  0  0  0  0  0  0  0  0  0  0  0
   14.1997   -1.6308   16.0097 C   0  0  0  0  0  0  0  0  0  0  0  0
  1  2  1  0
  2  3  2  0
  2  4  2  0
  2  5  1  0
  5  6  1  0
  6  7  1  1
  6  8  1  0
  8  9  1  0
  9 10  1  0
 10 11  1  0
 11 12  1  0
 12 13  1  0
 13  8  1  0
M  END
>  <smiles>  (29) 
C62198-P111

>  <fragmenstein_error>  (29) 


>  <ref_pdb>  (29) 
30

>  <HIPPO Compound ID>  (29) 
24471

>  <fragmenstein_runtime>  (29) 
45.248663

>  <Energy>  (29) 
9.863103

>  <fragmenstein_outcome>  (29) 
acceptable

>  <tags>  (29) 
{'fragmenstein_placed', 'openbind_d68ev3c_c1_knitwork_impure'}

>  <HIPPO Pose ID>  (29) 
49768

>  <inchikey>  (29) 
RDNKLFBMGRSECG-UHFFFAOYSA-N

>  <alias>  (29) 
CS(=O)(=O)C[C@H](O)C1CCCCC1

>  <scratch_subdir>  (29) 
/opt/xchem-fragalysis-2/maxwin/BulkDock/SCRATCH/511021/C62198-P111

>  <fragmenstein_mode>  (29) 
expansion

$$$$
CC#CC=C1CCNC[C@@H]1CCC
     RDKit          3D

 13 13  0  0  0  0  0  0  0  0999 V2000
    3.9553    4.5199   27.6418 C   0  0  0  0  0  0  0  0  0  0  0  0
    2.5245    4.2642   27.7103 C   0  0  0  0  0  0  0  0  0  0  0  0
    1.3629    3.9727   27.7417 C   0  0  0  0  0  0  0  0  0  0  0  0
    0.0286    3.5173   27.6598 C   0  0  0  0  0  0  0  0  0  0  0  0
   -0.3859    2.3637   28.2169 C   0  0  0  0  0  0  0  0  0  0  0  0
    0.4604    1.5251   29.1608 C   0  0  0  0  0  0  0  0  0  0  0  0
    0.7287    0.1268   28.5826 C   0  0  0  0  0  0  0  0  0  0  0  0
   -0.3809   -0.4222   27.8012 N   0  0  0  0  0  0  0  0  0  0  0  0
   -1.6578    0.1704   28.1740 C   0  0  0  0  0  0  0  0  0  0  0  0
   -1.7201    1.6970   27.8502 C   0  0  2  0  0  0  0  0  0  0  0  0
   -2.0909    1.8952   26.3638 C   0  0  0  0  0  0  0  0  0  0  0  0
   -2.8543    3.1868   26.0592 C   0  0  0  0  0  0  0  0  0  0  0  0
   -2.4364    3.8067   24.7311 C   0  0  0  0  0  0  0  0  0  0  0  0
  1  2  1  0
  2  3  3  0
  3  4  1  0
  4  5  2  3
  5  6  1  0
  6  7  1  0
  7  8  1  0
  8  9  1  0
  9 10  1  0
 10 11  1  6
 11 12  1  0
 12 13  1  0
 10  5  1  0
M  END
>  <smiles>  (30) 
C57933-P70

>  <fragmenstein_error>  (30) 


>  <ref_pdb>  (30) 
99

>  <HIPPO Compound ID>  (30) 
46391

>  <fragmenstein_runtime>  (30) 
4.173921

>  <Energy>  (30) 
51.446186

>  <fragmenstein_outcome>  (30) 
acceptable

>  <tags>  (30) 
{'fragmenstein_placed', 'openbind_d68ev3c_c1_knitwork_impure'}

>  <HIPPO Pose ID>  (30) 
50582

>  <inchikey>  (30) 
YGERXUZXZXKXRJ-UHFFFAOYSA-N

>  <alias>  (30) 
CC#CC=C1CCNC[C@@H]1CCC

>  <scratch_subdir>  (30) 
/opt/xchem-fragalysis-2/maxwin/BulkDock/SCRATCH/511022/C57933-P70

>  <fragmenstein_mode>  (30) 
expansion

$$$$
C[C@@H](NS(=O)(=O)C(C)(C)C)[C@H]1CCNC1
     RDKit          3D

 15 15  0  0  0  0  0  0  0  0999 V2000
    1.5764   -2.3497   29.3173 C   0  0  0  0  0  0  0  0  0  0  0  0
    0.1634   -2.1520   28.7957 C   0  0  1  0  0  0  0  0  0  0  0  0
   -0.9520   -2.3654   29.7433 N   0  0  0  0  0  0  0  0  0  0  0  0
   -0.8960   -2.7477   31.3535 S   0  0  0  0  0  0  0  0  0  0  0  0
    0.3979   -3.2916   31.6912 O   0  0  0  0  0  0  0  0  0  0  0  0
   -2.0958   -3.5415   31.5543 O   0  0  0  0  0  0  0  0  0  0  0  0
   -1.1348   -1.1454   32.2250 C   0  0  0  0  0  0  0  0  0  0  0  0
   -2.5932   -0.6957   32.1004 C   0  0  0  0  0  0  0  0  0  0  0  0
   -0.2492   -0.0332   31.6615 C   0  0  0  0  0  0  0  0  0  0  0  0
   -0.8026   -1.3689   33.7097 C   0  0  0  0  0  0  0  0  0  0  0  0
   -0.0195   -0.8403   28.0083 C   0  0  1  0  0  0  0  0  0  0  0  0
   -1.4261   -0.2482   27.9379 C   0  0  0  0  0  0  0  0  0  0  0  0
   -1.2169    1.2130   27.5694 C   0  0  0  0  0  0  0  0  0  0  0  0
    0.2299    1.4205   27.5122 N   0  0  0  0  0  0  0  0  0  0  0  0
    0.8616    0.3629   28.3051 C   0  0  0  0  0  0  0  0  0  0  0  0
  2  1  1  1
  2  3  1  0
  3  4  1  0
  4  5  2  0
  4  6  2  0
  4  7  1  0
  7  8  1  0
  7  9  1  0
  7 10  1  0
  2 11  1  0
 11 12  1  1
 12 13  1  0
 13 14  1  0
 14 15  1  0
 15 11  1  0
M  END
>  <smiles>  (31) 
C52694-P70

>  <fragmenstein_error>  (31) 


>  <ref_pdb>  (31) 
99

>  <HIPPO Compound ID>  (31) 
54771

>  <fragmenstein_runtime>  (31) 
66.415295

>  <Energy>  (31) 
-35.4876

>  <fragmenstein_outcome>  (31) 
acceptable

>  <tags>  (31) 
{'fragmenstein_placed', 'openbind_d68ev3c_c1_knitwork_impure'}

>  <HIPPO Pose ID>  (31) 
50841

>  <inchikey>  (31) 
MEDHARBJPODMAY-UHFFFAOYSA-N

>  <alias>  (31) 
C[C@@H](NS(=O)(=O)C(C)(C)C)[C@H]1CCNC1

>  <scratch_subdir>  (31) 
/opt/xchem-fragalysis-2/maxwin/BulkDock/SCRATCH/511022/C52694-P70

>  <fragmenstein_mode>  (31) 
expansion

$$$$
CCC[C@H](N)C1=NN(C)C(=O)C1
     RDKit          3D

 12 12  0  0  0  0  0  0  0  0999 V2000
   13.1592    1.6315   15.1010 C   0  0  0  0  0  0  0  0  0  0  0  0
   13.5195    0.1749   14.8767 C   0  0  0  0  0  0  0  0  0  0  0  0
   12.2949   -0.7367   15.0486 C   0  0  0  0  0  0  0  0  0  0  0  0
   12.6217   -2.1796   14.6755 C   0  0  2  0  0  0  0  0  0  0  0  0
   11.4056   -2.9430   14.4457 N   0  0  0  0  0  0  0  0  0  0  0  0
   13.4998   -2.8514   15.7096 C   0  0  0  0  0  0  0  0  0  0  0  0
   14.7864   -2.6704   15.7574 N   0  0  0  0  0  0  0  0  0  0  0  0
   15.2516   -3.4820   16.7613 N   0  0  0  0  0  0  0  0  0  0  0  0
   16.6659   -3.6396   16.9689 C   0  0  0  0  0  0  0  0  0  0  0  0
   14.2774   -4.2922   17.3347 C   0  0  0  0  0  0  0  0  0  0  0  0
   14.4129   -5.2271   18.1051 O   0  0  0  0  0  0  0  0  0  0  0  0
   12.9921   -3.7819   16.7713 C   0  0  0  0  0  0  0  0  0  0  0  0
  1  2  1  0
  2  3  1  0
  3  4  1  0
  4  5  1  1
  4  6  1  0
  6  7  2  0
  7  8  1  0
  8  9  1  0
  8 10  1  0
 10 11  2  0
 10 12  1  0
 12  6  1  0
M  END
>  <smiles>  (32) 
C77957-P98

>  <fragmenstein_error>  (32) 


>  <ref_pdb>  (32) 
99

>  <HIPPO Compound ID>  (32) 
10625

>  <fragmenstein_runtime>  (32) 
1.193138

>  <Energy>  (32) 
40.159452

>  <fragmenstein_outcome>  (32) 
acceptable

>  <tags>  (32) 
{'fragmenstein_placed', 'openbind_d68ev3c_c1_knitwork_impure'}

>  <HIPPO Pose ID>  (32) 
50917

>  <inchikey>  (32) 
AHIBHNADHAPWSO-UHFFFAOYSA-N

>  <alias>  (32) 
CCC[C@H](N)C1=NN(C)C(=O)C1

>  <scratch_subdir>  (32) 
/opt/xchem-fragalysis-2/maxwin/BulkDock/SCRATCH/511022/C77957-P98

>  <fragmenstein_mode>  (32) 
expansion

$$$$
C1CNC[C@@H]([C@H]2CCCOC2)C1
     RDKit          3D

 12 13  0  0  0  0  0  0  0  0999 V2000
  -10.3165  -25.5831   13.8695 C   0  0  0  0  0  0  0  0  0  0  0  0
  -10.6828  -26.8040   14.7059 C   0  0  0  0  0  0  0  0  0  0  0  0
  -11.9030  -26.5458   15.4565 N   0  0  0  0  0  0  0  0  0  0  0  0
  -13.0644  -26.3964   14.5787 C   0  0  0  0  0  0  0  0  0  0  0  0
  -12.7628  -25.8078   13.1799 C   0  0  1  0  0  0  0  0  0  0  0  0
  -13.9697  -25.0683   12.5432 C   0  0  1  0  0  0  0  0  0  0  0  0
  -15.0856  -26.0499   12.1620 C   0  0  0  0  0  0  0  0  0  0  0  0
  -16.2693  -25.3068   11.5515 C   0  0  0  0  0  0  0  0  0  0  0  0
  -16.7244  -24.1814   12.4668 C   0  0  0  0  0  0  0  0  0  0  0  0
  -15.6435  -23.2927   12.7293 O   0  0  0  0  0  0  0  0  0  0  0  0
  -14.5607  -23.9367   13.4003 C   0  0  0  0  0  0  0  0  0  0  0  0
  -11.5086  -24.9258   13.1738 C   0  0  0  0  0  0  0  0  0  0  0  0
  1  2  1  0
  2  3  1  0
  3  4  1  0
  5  4  1  1
  5  6  1  0
  6  7  1  1
  7  8  1  0
  8  9  1  0
  9 10  1  0
 10 11  1  0
  5 12  1  0
 12  1  1  0
 11  6  1  0
M  END
>  <smiles>  (33) 
C64268-P9

>  <fragmenstein_error>  (33) 


>  <ref_pdb>  (33) 
99

>  <HIPPO Compound ID>  (33) 
59879

>  <fragmenstein_runtime>  (33) 
0.938716

>  <Energy>  (33) 
20.000802

>  <fragmenstein_outcome>  (33) 
acceptable

>  <tags>  (33) 
{'fragmenstein_placed', 'openbind_d68ev3c_c1_knitwork_impure'}

>  <HIPPO Pose ID>  (33) 
50973

>  <inchikey>  (33) 
VVYLRGQOYCMJKY-UHFFFAOYSA-N

>  <alias>  (33) 
C1CNC[C@@H]([C@H]2CCCOC2)C1

>  <scratch_subdir>  (33) 
/opt/xchem-fragalysis-2/maxwin/BulkDock/SCRATCH/511022/C64268-P9

>  <fragmenstein_mode>  (33) 
expansion

$$$$
C1CNC[C@@H]([C@@H]2CCCO2)C1
     RDKit          3D

 11 12  0  0  0  0  0  0  0  0999 V2000
  -10.4778  -26.1226   13.7888 C   0  0  0  0  0  0  0  0  0  0  0  0
  -11.1277  -26.6661   15.0638 C   0  0  0  0  0  0  0  0  0  0  0  0
  -12.5767  -26.4532   15.1329 N   0  0  0  0  0  0  0  0  0  0  0  0
  -13.1989  -26.7239   13.8353 C   0  0  0  0  0  0  0  0  0  0  0  0
  -12.7263  -25.7336   12.7517 C   0  0  1  0  0  0  0  0  0  0  0  0
  -13.7728  -24.6718   12.3948 C   0  0  2  0  0  0  0  0  0  0  0  0
  -14.3737  -23.8617   13.5410 C   0  0  0  0  0  0  0  0  0  0  0  0
  -15.8697  -24.0232   13.3955 C   0  0  0  0  0  0  0  0  0  0  0  0
  -16.0342  -24.5082   11.9765 C   0  0  0  0  0  0  0  0  0  0  0  0
  -14.8811  -25.3151   11.7337 O   0  0  0  0  0  0  0  0  0  0  0  0
  -11.3635  -25.1050   13.0826 C   0  0  0  0  0  0  0  0  0  0  0  0
  1  2  1  0
  2  3  1  0
  3  4  1  0
  5  4  1  1
  5  6  1  0
  6  7  1  1
  7  8  1  0
  8  9  1  0
  9 10  1  0
  5 11  1  0
 11  1  1  0
 10  6  1  0
M  END
>  <smiles>  (34) 
C38372-P9

>  <fragmenstein_error>  (34) 


>  <ref_pdb>  (34) 
99

>  <HIPPO Compound ID>  (34) 
25215

>  <fragmenstein_runtime>  (34) 
0.858296

>  <Energy>  (34) 
21.311349

>  <fragmenstein_outcome>  (34) 
acceptable

>  <tags>  (34) 
{'fragmenstein_placed', 'openbind_d68ev3c_c1_knitwork_impure'}

>  <HIPPO Pose ID>  (34) 
50978

>  <inchikey>  (34) 
UAWXRJPBGZDMHL-UHFFFAOYSA-N

>  <alias>  (34) 
C1CNC[C@@H]([C@@H]2CCCO2)C1

>  <scratch_subdir>  (34) 
/opt/xchem-fragalysis-2/maxwin/BulkDock/SCRATCH/511022/C38372-P9

>  <fragmenstein_mode>  (34) 
expansion

$$$$
N#CCCCNS(=O)(=O)c1ccccn1
     RDKit          3D

 15 15  0  0  0  0  0  0  0  0999 V2000
   13.5568   -5.8849   21.3124 N   0  0  0  0  0  0  0  0  0  0  0  0
   14.0114   -4.8639   21.6217 C   0  0  0  0  0  0  0  0  0  0  0  0
   14.6295   -3.5951   22.0154 C   0  0  0  0  0  0  0  0  0  0  0  0
   15.9156   -3.3038   21.2347 C   0  0  0  0  0  0  0  0  0  0  0  0
   15.7288   -2.5710   19.9003 C   0  0  0  0  0  0  0  0  0  0  0  0
   15.5215   -3.4771   18.7595 N   0  0  0  0  0  0  0  0  0  0  0  0
   13.9467   -3.7961   18.2536 S   0  0  0  0  0  0  0  0  0  0  0  0
   13.1251   -3.2846   19.3165 O   0  0  0  0  0  0  0  0  0  0  0  0
   14.0113   -5.1839   17.8676 O   0  0  0  0  0  0  0  0  0  0  0  0
   13.5887   -2.8415   16.7939 C   0  0  0  0  0  0  0  0  0  0  0  0
   14.4574   -1.8982   16.2809 C   0  0  0  0  0  0  0  0  0  0  0  0
   14.0390   -1.2086   15.1434 C   0  0  0  0  0  0  0  0  0  0  0  0
   12.7976   -1.4937   14.5705 C   0  0  0  0  0  0  0  0  0  0  0  0
   12.0016   -2.4608   15.1576 C   0  0  0  0  0  0  0  0  0  0  0  0
   12.3623   -3.1314   16.2669 N   0  0  0  0  0  0  0  0  0  0  0  0
  1  2  3  0
  2  3  1  0
  3  4  1  0
  4  5  1  0
  5  6  1  0
  6  7  1  0
  7  8  2  0
  7  9  2  0
  7 10  1  0
 10 11  2  0
 11 12  1  0
 12 13  2  0
 13 14  1  0
 14 15  2  0
 15 10  1  0
M  END
>  <smiles>  (35) 
C59529-P60

>  <fragmenstein_error>  (35) 


>  <ref_pdb>  (35) 
99

>  <HIPPO Compound ID>  (35) 
51983

>  <fragmenstein_runtime>  (35) 
0.859064

>  <Energy>  (35) 
29.645026

>  <fragmenstein_outcome>  (35) 
acceptable

>  <tags>  (35) 
{'fragmenstein_placed', 'openbind_d68ev3c_c1_knitwork_impure'}

>  <HIPPO Pose ID>  (35) 
52065

>  <inchikey>  (35) 
XFTRKDBFUQIIIQ-UHFFFAOYSA-N

>  <alias>  (35) 
N#CCCCNS(=O)(=O)c1ccccn1

>  <scratch_subdir>  (35) 
/opt/xchem-fragalysis-2/maxwin/BulkDock/SCRATCH/511022/C59529-P60

>  <fragmenstein_mode>  (35) 
expansion

$$$$
CC(C)(O)C(=O)c1ccccn1
     RDKit          3D

 12 12  0  0  0  0  0  0  0  0999 V2000
   16.0631    0.8456   15.2496 C   0  0  0  0  0  0  0  0  0  0  0  0
   15.0509    0.4133   14.1878 C   0  0  0  0  0  0  0  0  0  0  0  0
   15.1055    1.3684   12.9902 C   0  0  0  0  0  0  0  0  0  0  0  0
   15.4279   -0.8701   13.6957 O   0  0  0  0  0  0  0  0  0  0  0  0
   13.6329    0.4651   14.7922 C   0  0  0  0  0  0  0  0  0  0  0  0
   12.9945    1.5062   14.9385 O   0  0  0  0  0  0  0  0  0  0  0  0
   13.0412   -0.8119   15.2413 C   0  0  0  0  0  0  0  0  0  0  0  0
   11.7978   -1.1941   14.7646 C   0  0  0  0  0  0  0  0  0  0  0  0
   11.3215   -2.4424   15.1441 C   0  0  0  0  0  0  0  0  0  0  0  0
   12.0725   -3.2298   16.0118 C   0  0  0  0  0  0  0  0  0  0  0  0
   13.2911   -2.7473   16.4573 C   0  0  0  0  0  0  0  0  0  0  0  0
   13.8110   -1.5624   16.0733 N   0  0  0  0  0  0  0  0  0  0  0  0
  1  2  1  0
  2  3  1  0
  2  4  1  0
  2  5  1  0
  5  6  2  0
  5  7  1  0
  7  8  2  0
  8  9  1  0
  9 10  2  0
 10 11  1  0
 11 12  2  0
 12  7  1  0
M  END
>  <smiles>  (36) 
C59547-P60

>  <fragmenstein_error>  (36) 


>  <ref_pdb>  (36) 
99

>  <HIPPO Compound ID>  (36) 
23144

>  <fragmenstein_runtime>  (36) 
0.858895

>  <Energy>  (36) 
78.996219

>  <fragmenstein_outcome>  (36) 
acceptable

>  <tags>  (36) 
{'fragmenstein_placed', 'openbind_d68ev3c_c1_knitwork_impure'}

>  <HIPPO Pose ID>  (36) 
52073

>  <inchikey>  (36) 
HMJNJSYWGBZZGV-UHFFFAOYSA-N

>  <alias>  (36) 
CC(C)(O)C(=O)c1ccccn1

>  <scratch_subdir>  (36) 
/opt/xchem-fragalysis-2/maxwin/BulkDock/SCRATCH/511022/C59547-P60

>  <fragmenstein_mode>  (36) 
expansion

$$$$
CC(C)C[C@H](C)S(=O)(=O)N1CCCC1
     RDKit          3D

 14 14  0  0  0  0  0  0  0  0999 V2000
   -9.6333  -22.2143   33.4600 C   0  0  0  0  0  0  0  0  0  0  0  0
   -9.8290  -22.7187   32.0346 C   0  0  0  0  0  0  0  0  0  0  0  0
   -8.4969  -23.1883   31.5092 C   0  0  0  0  0  0  0  0  0  0  0  0
  -10.5064  -21.6005   31.2503 C   0  0  0  0  0  0  0  0  0  0  0  0
  -10.5037  -21.6746   29.7237 C   0  0  2  0  0  0  0  0  0  0  0  0
  -10.9785  -20.3176   29.2080 C   0  0  0  0  0  0  0  0  0  0  0  0
  -11.4216  -23.0944   29.0735 S   0  0  0  0  0  0  0  0  0  0  0  0
  -10.7398  -24.3218   29.3788 O   0  0  0  0  0  0  0  0  0  0  0  0
  -12.7771  -23.0954   29.5221 O   0  0  0  0  0  0  0  0  0  0  0  0
  -11.5176  -22.8424   27.4028 N   0  0  0  0  0  0  0  0  0  0  0  0
  -12.0073  -24.0301   26.6428 C   0  0  0  0  0  0  0  0  0  0  0  0
  -12.9689  -23.4639   25.6014 C   0  0  0  0  0  0  0  0  0  0  0  0
  -13.5903  -22.3079   26.2939 C   0  0  0  0  0  0  0  0  0  0  0  0
  -12.3624  -21.6970   26.9222 C   0  0  0  0  0  0  0  0  0  0  0  0
  1  2  1  0
  2  3  1  0
  2  4  1  0
  4  5  1  0
  5  6  1  6
  5  7  1  0
  7  8  2  0
  7  9  2  0
  7 10  1  0
 10 11  1  0
 11 12  1  0
 12 13  1  0
 13 14  1  0
 14 10  1  0
M  END
>  <smiles>  (37) 
C58654-P3

>  <fragmenstein_error>  (37) 


>  <ref_pdb>  (37) 
99

>  <HIPPO Compound ID>  (37) 
7644

>  <fragmenstein_runtime>  (37) 
3.171417

>  <Energy>  (37) 
-28.061039

>  <fragmenstein_outcome>  (37) 
acceptable

>  <tags>  (37) 
{'fragmenstein_placed', 'openbind_d68ev3c_c1_knitwork_impure'}

>  <HIPPO Pose ID>  (37) 
52138

>  <inchikey>  (37) 
CYATXDDGJVSDCH-UHFFFAOYSA-N

>  <alias>  (37) 
CC(C)C[C@H](C)S(=O)(=O)N1CCCC1

>  <scratch_subdir>  (37) 
/opt/xchem-fragalysis-2/maxwin/BulkDock/SCRATCH/511022/C58654-P3

>  <fragmenstein_mode>  (37) 
expansion

$$$$
CC#CCS(=O)(=O)N1CCCC1
     RDKit          3D

 12 12  0  0  0  0  0  0  0  0999 V2000
   -8.8077  -22.2629   33.2658 C   0  0  0  0  0  0  0  0  0  0  0  0
   -9.5477  -22.5328   32.0478 C   0  0  0  0  0  0  0  0  0  0  0  0
  -10.1286  -22.5427   31.0029 C   0  0  0  0  0  0  0  0  0  0  0  0
  -10.6760  -22.1947   29.7140 C   0  0  0  0  0  0  0  0  0  0  0  0
  -11.6497  -23.4952   28.9587 S   0  0  0  0  0  0  0  0  0  0  0  0
  -11.0319  -24.7939   28.9670 O   0  0  0  0  0  0  0  0  0  0  0  0
  -12.9994  -23.4662   29.4500 O   0  0  0  0  0  0  0  0  0  0  0  0
  -11.6920  -22.8887   27.3850 N   0  0  0  0  0  0  0  0  0  0  0  0
  -12.4593  -23.6371   26.3897 C   0  0  0  0  0  0  0  0  0  0  0  0
  -12.4734  -22.6715   25.2101 C   0  0  0  0  0  0  0  0  0  0  0  0
  -12.7115  -21.3367   25.8582 C   0  0  0  0  0  0  0  0  0  0  0  0
  -11.9800  -21.4428   27.1809 C   0  0  0  0  0  0  0  0  0  0  0  0
  1  2  1  0
  2  3  3  0
  3  4  1  0
  4  5  1  0
  5  6  2  0
  5  7  2  0
  5  8  1  0
  8  9  1  0
  9 10  1  0
 10 11  1  0
 11 12  1  0
 12  8  1  0
M  END
>  <smiles>  (38) 
C58656-P3

>  <fragmenstein_error>  (38) 


>  <ref_pdb>  (38) 
99

>  <HIPPO Compound ID>  (38) 
76789

>  <fragmenstein_runtime>  (38) 
2.045339

>  <Energy>  (38) 
1.134219

>  <fragmenstein_outcome>  (38) 
acceptable

>  <tags>  (38) 
{'fragmenstein_placed', 'openbind_d68ev3c_c1_knitwork_impure'}

>  <HIPPO Pose ID>  (38) 
52139

>  <inchikey>  (38) 
HISBRGNRILPBSU-UHFFFAOYSA-N

>  <alias>  (38) 
CC#CCS(=O)(=O)N1CCCC1

>  <scratch_subdir>  (38) 
/opt/xchem-fragalysis-2/maxwin/BulkDock/SCRATCH/511022/C58656-P3

>  <fragmenstein_mode>  (38) 
expansion

$$$$
CC(=O)C(C)(C)S(=O)(=O)N1CCCC1
     RDKit          3D

 14 14  0  0  0  0  0  0  0  0999 V2000
   -9.2413  -23.4224   31.3300 C   0  0  0  0  0  0  0  0  0  0  0  0
  -10.0450  -22.1899   31.0577 C   0  0  0  0  0  0  0  0  0  0  0  0
  -10.1037  -21.3446   31.9626 O   0  0  0  0  0  0  0  0  0  0  0  0
  -10.7353  -21.9363   29.7018 C   0  0  0  0  0  0  0  0  0  0  0  0
  -11.6299  -20.7270   29.9675 C   0  0  0  0  0  0  0  0  0  0  0  0
   -9.8667  -21.4381   28.5668 C   0  0  0  0  0  0  0  0  0  0  0  0
  -11.6267  -23.4412   29.1190 S   0  0  0  0  0  0  0  0  0  0  0  0
  -10.8956  -24.6438   29.4273 O   0  0  0  0  0  0  0  0  0  0  0  0
  -12.9967  -23.4602   29.5419 O   0  0  0  0  0  0  0  0  0  0  0  0
  -11.7414  -23.3168   27.4314 N   0  0  0  0  0  0  0  0  0  0  0  0
  -12.4096  -24.4834   26.7900 C   0  0  0  0  0  0  0  0  0  0  0  0
  -13.5857  -23.8981   26.0212 C   0  0  0  0  0  0  0  0  0  0  0  0
  -13.0803  -22.5418   25.5909 C   0  0  0  0  0  0  0  0  0  0  0  0
  -12.3438  -22.0859   26.8296 C   0  0  0  0  0  0  0  0  0  0  0  0
  1  2  1  0
  2  3  2  0
  2  4  1  0
  4  5  1  0
  4  6  1  0
  4  7  1  0
  7  8  2  0
  7  9  2  0
  7 10  1  0
 10 11  1  0
 11 12  1  0
 12 13  1  0
 13 14  1  0
 14 10  1  0
M  END
>  <smiles>  (39) 
C58658-P3

>  <fragmenstein_error>  (39) 


>  <ref_pdb>  (39) 
99

>  <HIPPO Compound ID>  (39) 
51935

>  <fragmenstein_runtime>  (39) 
2.213542

>  <Energy>  (39) 
-40.59923

>  <fragmenstein_outcome>  (39) 
acceptable

>  <tags>  (39) 
{'fragmenstein_placed', 'openbind_d68ev3c_c1_knitwork_impure'}

>  <HIPPO Pose ID>  (39) 
52140

>  <inchikey>  (39) 
CFOWWXOXQGPMHY-UHFFFAOYSA-N

>  <alias>  (39) 
CC(=O)C(C)(C)S(=O)(=O)N1CCCC1

>  <scratch_subdir>  (39) 
/opt/xchem-fragalysis-2/maxwin/BulkDock/SCRATCH/511022/C58658-P3

>  <fragmenstein_mode>  (39) 
expansion

$$$$
O=S(=O)(C(Cl)Cl)N1CCCC1
     RDKit          3D

 11 11  0  0  0  0  0  0  0  0999 V2000
  -10.9694  -24.8034   29.1928 O   0  0  0  0  0  0  0  0  0  0  0  0
  -11.4596  -23.4449   29.1899 S   0  0  0  0  0  0  0  0  0  0  0  0
  -12.8524  -23.3361   29.5231 O   0  0  0  0  0  0  0  0  0  0  0  0
  -10.4031  -22.3186   30.1838 C   0  0  0  0  0  0  0  0  0  0  0  0
   -9.7825  -23.1588   31.5955 Cl  0  0  0  0  0  0  0  0  0  0  0  0
  -11.2721  -20.8622   30.6691 Cl  0  0  0  0  0  0  0  0  0  0  0  0
  -11.3326  -22.8060   27.6269 N   0  0  0  0  0  0  0  0  0  0  0  0
  -11.9718  -23.5964   26.5536 C   0  0  0  0  0  0  0  0  0  0  0  0
  -12.1102  -22.5989   25.4137 C   0  0  0  0  0  0  0  0  0  0  0  0
  -12.5014  -21.3306   26.1197 C   0  0  0  0  0  0  0  0  0  0  0  0
  -11.7391  -21.3837   27.4292 C   0  0  0  0  0  0  0  0  0  0  0  0
  1  2  2  0
  2  3  2  0
  2  4  1  0
  4  5  1  0
  4  6  1  0
  2  7  1  0
  7  8  1  0
  8  9  1  0
  9 10  1  0
 10 11  1  0
 11  7  1  0
M  END
>  <smiles>  (40) 
C58678-P3

>  <fragmenstein_error>  (40) 


>  <ref_pdb>  (40) 
99

>  <HIPPO Compound ID>  (40) 
79165

>  <fragmenstein_runtime>  (40) 
1.33117

>  <Energy>  (40) 
40.880355

>  <fragmenstein_outcome>  (40) 
acceptable

>  <tags>  (40) 
{'fragmenstein_placed', 'openbind_d68ev3c_c1_knitwork_impure'}

>  <HIPPO Pose ID>  (40) 
52154

>  <inchikey>  (40) 
NMVRSGFSPAGCSQ-UHFFFAOYSA-N

>  <alias>  (40) 
O=S(=O)(C(Cl)Cl)N1CCCC1

>  <scratch_subdir>  (40) 
/opt/xchem-fragalysis-2/maxwin/BulkDock/SCRATCH/511022/C58678-P3

>  <fragmenstein_mode>  (40) 
expansion

$$$$
O=S(=O)(CCBr)N1CCCC1
     RDKit          3D

 11 11  0  0  0  0  0  0  0  0999 V2000
  -10.7720  -24.5345   29.4724 O   0  0  0  0  0  0  0  0  0  0  0  0
  -11.4172  -23.2735   29.2453 S   0  0  0  0  0  0  0  0  0  0  0  0
  -12.8216  -23.2596   29.5295 O   0  0  0  0  0  0  0  0  0  0  0  0
  -10.5817  -21.9207   30.0588 C   0  0  0  0  0  0  0  0  0  0  0  0
  -10.3424  -22.0981   31.5236 C   0  0  0  0  0  0  0  0  0  0  0  0
   -8.7941  -23.1850   31.8545 Br  0  0  0  0  0  0  0  0  0  0  0  0
  -11.3017  -22.7518   27.6402 N   0  0  0  0  0  0  0  0  0  0  0  0
  -11.9319  -23.6137   26.6195 C   0  0  0  0  0  0  0  0  0  0  0  0
  -12.1333  -22.6734   25.4383 C   0  0  0  0  0  0  0  0  0  0  0  0
  -12.5460  -21.3811   26.0817 C   0  0  0  0  0  0  0  0  0  0  0  0
  -11.7661  -21.3520   27.3763 C   0  0  0  0  0  0  0  0  0  0  0  0
  1  2  2  0
  2  3  2  0
  2  4  1  0
  4  5  1  0
  5  6  1  0
  2  7  1  0
  7  8  1  0
  8  9  1  0
  9 10  1  0
 10 11  1  0
 11  7  1  0
M  END
>  <smiles>  (41) 
C58693-P3

>  <fragmenstein_error>  (41) 


>  <ref_pdb>  (41) 
99

>  <HIPPO Compound ID>  (41) 
38446

>  <fragmenstein_runtime>  (41) 
1.64395

>  <Energy>  (41) 
-57.938481

>  <fragmenstein_outcome>  (41) 
acceptable

>  <tags>  (41) 
{'fragmenstein_placed', 'openbind_d68ev3c_c1_knitwork_impure'}

>  <HIPPO Pose ID>  (41) 
52164

>  <inchikey>  (41) 
XSEWTAWPLGARCA-UHFFFAOYSA-N

>  <alias>  (41) 
O=S(=O)(CCBr)N1CCCC1

>  <scratch_subdir>  (41) 
/opt/xchem-fragalysis-2/maxwin/BulkDock/SCRATCH/511022/C58693-P3

>  <fragmenstein_mode>  (41) 
expansion

$$$$
CCn1nc(-c2cccs2)nc1-c1ccc2cccnn12
     RDKit          3D

 21 24  0  0  0  0  0  0  0  0999 V2000
   16.7071    2.3950   18.2875 C   0  0  0  0  0  0  0  0  0  0  0  0
   17.4015    1.0978   17.9056 C   0  0  0  0  0  0  0  0  0  0  0  0
   16.4956   -0.0285   17.8423 N   0  0  0  0  0  0  0  0  0  0  0  0
   15.5596   -0.0555   16.8666 N   0  0  0  0  0  0  0  0  0  0  0  0
   15.0488   -1.2842   17.0120 C   0  0  0  0  0  0  0  0  0  0  0  0
   13.8571   -1.8063   16.1498 C   0  0  0  0  0  0  0  0  0  0  0  0
   13.3018   -1.1088   15.0982 C   0  0  0  0  0  0  0  0  0  0  0  0
   12.1366   -1.7524   14.5927 C   0  0  0  0  0  0  0  0  0  0  0  0
   11.8611   -2.9218   15.2649 C   0  0  0  0  0  0  0  0  0  0  0  0
   13.0461   -3.2740   16.4515 S   0  0  0  0  0  0  0  0  0  0  0  0
   15.6175   -2.0198   18.0127 N   0  0  0  0  0  0  0  0  0  0  0  0
   16.5052   -1.2057   18.5446 C   0  0  0  0  0  0  0  0  0  0  0  0
   17.3477   -1.5882   19.6330 C   0  0  0  0  0  0  0  0  0  0  0  0
   17.9820   -2.8064   19.8080 C   0  0  0  0  0  0  0  0  0  0  0  0
   18.6723   -2.7676   21.0409 C   0  0  0  0  0  0  0  0  0  0  0  0
   18.4174   -1.5385   21.6093 C   0  0  0  0  0  0  0  0  0  0  0  0
   18.7955   -0.9387   22.8322 C   0  0  0  0  0  0  0  0  0  0  0  0
   18.3431    0.2855   23.1226 C   0  0  0  0  0  0  0  0  0  0  0  0
   17.4762    0.9345   22.1154 C   0  0  0  0  0  0  0  0  0  0  0  0
   17.1155    0.4403   20.9746 N   0  0  0  0  0  0  0  0  0  0  0  0
   17.5996   -0.8191   20.7511 N   0  0  0  0  0  0  0  0  0  0  0  0
  1  2  1  0
  2  3  1  0
  3  4  1  0
  4  5  2  0
  5  6  1  0
  6  7  2  0
  7  8  1  0
  8  9  2  0
  9 10  1  0
  5 11  1  0
 11 12  2  0
 12 13  1  0
 13 14  2  0
 14 15  1  0
 15 16  2  0
 16 17  1  0
 17 18  2  0
 18 19  1  0
 19 20  2  0
 20 21  1  0
 12  3  1  0
 21 13  1  0
 10  6  1  0
 21 16  1  0
M  END
>  <smiles>  (42) 
C49416-P66

>  <fragmenstein_error>  (42) 


>  <ref_pdb>  (42) 
99

>  <HIPPO Compound ID>  (42) 
48981

>  <fragmenstein_runtime>  (42) 
1.499262

>  <Energy>  (42) 
30.068291

>  <fragmenstein_outcome>  (42) 
acceptable

>  <tags>  (42) 
{'fragmenstein_placed', 'openbind_d68ev3c_c1_knitwork_impure'}

>  <HIPPO Pose ID>  (42) 
52341

>  <inchikey>  (42) 
KANYLPDXMFUDGH-UHFFFAOYSA-N

>  <alias>  (42) 
CCn1nc(-c2cccs2)nc1-c1ccc2cccnn12

>  <scratch_subdir>  (42) 
/opt/xchem-fragalysis-2/maxwin/BulkDock/SCRATCH/511022/C49416-P66

>  <fragmenstein_mode>  (42) 
expansion

$$$$
CCn1nc(-c2cccs2)nc1-c1cccc2ccnn12
     RDKit          3D

 21 24  0  0  0  0  0  0  0  0999 V2000
   16.7173    2.4473   18.0875 C   0  0  0  0  0  0  0  0  0  0  0  0
   17.4114    1.1174   17.8382 C   0  0  0  0  0  0  0  0  0  0  0  0
   16.4971   -0.0072   17.8213 N   0  0  0  0  0  0  0  0  0  0  0  0
   15.5705   -0.0563   16.8374 N   0  0  0  0  0  0  0  0  0  0  0  0
   15.0450   -1.2732   17.0063 C   0  0  0  0  0  0  0  0  0  0  0  0
   13.8562   -1.8043   16.1469 C   0  0  0  0  0  0  0  0  0  0  0  0
   13.3033   -1.1166   15.0876 C   0  0  0  0  0  0  0  0  0  0  0  0
   12.1379   -1.7637   14.5874 C   0  0  0  0  0  0  0  0  0  0  0  0
   11.8614   -2.9271   15.2695 C   0  0  0  0  0  0  0  0  0  0  0  0
   13.0457   -3.2699   16.4594 S   0  0  0  0  0  0  0  0  0  0  0  0
   15.6028   -1.9894   18.0250 N   0  0  0  0  0  0  0  0  0  0  0  0
   16.4919   -1.1710   18.5584 C   0  0  0  0  0  0  0  0  0  0  0  0
   17.3736   -1.4181   19.6451 C   0  0  0  0  0  0  0  0  0  0  0  0
   18.0565   -2.5835   19.6526 C   0  0  0  0  0  0  0  0  0  0  0  0
   18.9393   -2.8987   20.7616 C   0  0  0  0  0  0  0  0  0  0  0  0
   19.0788   -2.0661   21.8081 C   0  0  0  0  0  0  0  0  0  0  0  0
   18.3475   -0.8468   21.8330 C   0  0  0  0  0  0  0  0  0  0  0  0
   18.2383    0.1848   22.7332 C   0  0  0  0  0  0  0  0  0  0  0  0
   17.3327    1.0736   22.1400 C   0  0  0  0  0  0  0  0  0  0  0  0
   16.9069    0.6632   20.9460 N   0  0  0  0  0  0  0  0  0  0  0  0
   17.5073   -0.5487   20.7485 N   0  0  0  0  0  0  0  0  0  0  0  0
  1  2  1  0
  2  3  1  0
  3  4  1  0
  4  5  2  0
  5  6  1  0
  6  7  2  0
  7  8  1  0
  8  9  2  0
  9 10  1  0
  5 11  1  0
 11 12  2  0
 12 13  1  0
 13 14  2  0
 14 15  1  0
 15 16  2  0
 16 17  1  0
 17 18  2  0
 18 19  1  0
 19 20  2  0
 20 21  1  0
 12  3  1  0
 21 13  1  0
 10  6  1  0
 21 17  1  0
M  END
>  <smiles>  (43) 
C49417-P66

>  <fragmenstein_error>  (43) 


>  <ref_pdb>  (43) 
99

>  <HIPPO Compound ID>  (43) 
56761

>  <fragmenstein_runtime>  (43) 
1.247069

>  <Energy>  (43) 
56.378099

>  <fragmenstein_outcome>  (43) 
acceptable

>  <tags>  (43) 
{'fragmenstein_placed', 'openbind_d68ev3c_c1_knitwork_impure'}

>  <HIPPO Pose ID>  (43) 
52342

>  <inchikey>  (43) 
WLZUJRZLYFHANU-UHFFFAOYSA-N

>  <alias>  (43) 
CCn1nc(-c2cccs2)nc1-c1cccc2ccnn12

>  <scratch_subdir>  (43) 
/opt/xchem-fragalysis-2/maxwin/BulkDock/SCRATCH/511022/C49417-P66

>  <fragmenstein_mode>  (43) 
expansion

$$$$
c1cn(-c2ccc3c(c2)COC3)c(-c2c[nH]cn2)n1
     RDKit          3D

 19 22  0  0  0  0  0  0  0  0999 V2000
   -9.1353  -27.5970   31.5078 C   0  0  0  0  0  0  0  0  0  0  0  0
  -10.0348  -27.5851   30.4788 C   0  0  0  0  0  0  0  0  0  0  0  0
  -10.5931  -26.3222   30.4952 N   0  0  0  0  0  0  0  0  0  0  0  0
  -11.2623  -25.7574   29.3755 C   0  0  0  0  0  0  0  0  0  0  0  0
  -11.2181  -24.3736   29.1404 C   0  0  0  0  0  0  0  0  0  0  0  0
  -11.7446  -23.7824   27.9955 C   0  0  0  0  0  0  0  0  0  0  0  0
  -12.3232  -24.6142   27.0769 C   0  0  0  0  0  0  0  0  0  0  0  0
  -12.3696  -25.9802   27.2916 C   0  0  0  0  0  0  0  0  0  0  0  0
  -11.8450  -26.5819   28.4180 C   0  0  0  0  0  0  0  0  0  0  0  0
  -12.9284  -26.6239   26.0950 C   0  0  0  0  0  0  0  0  0  0  0  0
  -13.4934  -25.5495   25.3297 O   0  0  0  0  0  0  0  0  0  0  0  0
  -12.8743  -24.3046   25.7416 C   0  0  0  0  0  0  0  0  0  0  0  0
  -10.1815  -25.7373   31.6902 C   0  0  0  0  0  0  0  0  0  0  0  0
  -10.6618  -24.4034   32.3724 C   0  0  0  0  0  0  0  0  0  0  0  0
  -11.7764  -23.6474   32.0820 C   0  0  0  0  0  0  0  0  0  0  0  0
  -11.7248  -22.5784   32.9346 N   0  0  0  0  0  0  0  0  0  0  0  0
  -10.6241  -22.7325   33.7225 C   0  0  0  0  0  0  0  0  0  0  0  0
   -9.9837  -23.8363   33.4280 N   0  0  0  0  0  0  0  0  0  0  0  0
   -9.2671  -26.4874   32.2774 N   0  0  0  0  0  0  0  0  0  0  0  0
  1  2  2  0
  2  3  1  0
  3  4  1  0
  4  5  2  0
  5  6  1  0
  6  7  2  0
  7  8  1  0
  8  9  2  0
  8 10  1  0
 10 11  1  0
 11 12  1  0
  3 13  1  0
 13 14  1  0
 14 15  2  0
 15 16  1  0
 16 17  1  0
 17 18  2  0
 13 19  2  0
 19  1  1  0
  9  4  1  0
 18 14  1  0
 12  7  1  0
M  END
>  <smiles>  (44) 
C50203-P35

>  <fragmenstein_error>  (44) 


>  <ref_pdb>  (44) 
99

>  <HIPPO Compound ID>  (44) 
22289

>  <fragmenstein_runtime>  (44) 
3.480788

>  <Energy>  (44) 
89.40349

>  <fragmenstein_outcome>  (44) 
acceptable

>  <tags>  (44) 
{'fragmenstein_placed', 'openbind_d68ev3c_c1_knitwork_impure'}

>  <HIPPO Pose ID>  (44) 
52940

>  <inchikey>  (44) 
LWJBURPJBDIWHN-UHFFFAOYSA-N

>  <alias>  (44) 
c1cn(-c2ccc3c(c2)COC3)c(-c2c[nH]cn2)n1

>  <scratch_subdir>  (44) 
/opt/xchem-fragalysis-2/maxwin/BulkDock/SCRATCH/511022/C50203-P35

>  <fragmenstein_mode>  (44) 
expansion

$$$$
c1cnn(CCn2ccnc2-c2c[nH]cn2)c1
     RDKit          3D

 17 19  0  0  0  0  0  0  0  0999 V2000
  -11.4616  -23.5981   27.4093 C   0  0  0  0  0  0  0  0  0  0  0  0
  -12.2085  -24.2279   26.4011 C   0  0  0  0  0  0  0  0  0  0  0  0
  -12.3375  -25.5401   26.6109 N   0  0  0  0  0  0  0  0  0  0  0  0
  -11.7168  -25.7276   27.7928 N   0  0  0  0  0  0  0  0  0  0  0  0
  -11.8950  -26.9854   28.4854 C   0  0  0  0  0  0  0  0  0  0  0  0
  -12.0987  -26.8195   29.9911 C   0  0  0  0  0  0  0  0  0  0  0  0
  -10.8647  -26.8696   30.7409 N   0  0  0  0  0  0  0  0  0  0  0  0
  -10.0463  -27.9674   30.6768 C   0  0  0  0  0  0  0  0  0  0  0  0
   -9.0204  -27.7003   31.5327 C   0  0  0  0  0  0  0  0  0  0  0  0
   -9.2287  -26.5202   32.1693 N   0  0  0  0  0  0  0  0  0  0  0  0
  -10.3231  -25.9944   31.6544 C   0  0  0  0  0  0  0  0  0  0  0  0
  -10.7871  -24.5699   32.1211 C   0  0  0  0  0  0  0  0  0  0  0  0
  -11.8490  -23.8120   31.6854 C   0  0  0  0  0  0  0  0  0  0  0  0
  -11.8158  -22.6733   32.4501 N   0  0  0  0  0  0  0  0  0  0  0  0
  -10.7384  -22.7569   33.2788 C   0  0  0  0  0  0  0  0  0  0  0  0
  -10.0986  -23.8849   33.1024 N   0  0  0  0  0  0  0  0  0  0  0  0
  -11.0712  -24.6155   28.2408 C   0  0  0  0  0  0  0  0  0  0  0  0
  1  2  1  0
  2  3  2  0
  3  4  1  0
  4  5  1  0
  5  6  1  0
  6  7  1  0
  7  8  1  0
  8  9  2  0
  9 10  1  0
 10 11  2  0
 11 12  1  0
 12 13  2  0
 13 14  1  0
 14 15  1  0
 15 16  2  0
  4 17  1  0
 17  1  2  0
 11  7  1  0
 16 12  1  0
M  END
>  <smiles>  (45) 
C50208-P35

>  <fragmenstein_error>  (45) 


>  <ref_pdb>  (45) 
99

>  <HIPPO Compound ID>  (45) 
73145

>  <fragmenstein_runtime>  (45) 
1.795286

>  <Energy>  (45) 
23.931147

>  <fragmenstein_outcome>  (45) 
acceptable

>  <tags>  (45) 
{'fragmenstein_placed', 'openbind_d68ev3c_c1_knitwork_impure'}

>  <HIPPO Pose ID>  (45) 
52941

>  <inchikey>  (45) 
VJMIDHGOZHSEDG-UHFFFAOYSA-N

>  <alias>  (45) 
c1cnn(CCn2ccnc2-c2c[nH]cn2)c1

>  <scratch_subdir>  (45) 
/opt/xchem-fragalysis-2/maxwin/BulkDock/SCRATCH/511022/C50208-P35

>  <fragmenstein_mode>  (45) 
expansion

$$$$
O[C@@H](CCOCC(F)(F)F)c1nccs1
     RDKit          3D

 15 15  0  0  0  0  0  0  0  0999 V2000
   15.9746   -2.4327   16.3176 O   0  0  0  0  0  0  0  0  0  0  0  0
   14.8583   -1.8794   17.0070 C   0  0  1  0  0  0  0  0  0  0  0  0
   15.0294   -0.3759   17.2242 C   0  0  0  0  0  0  0  0  0  0  0  0
   16.4376    0.0241   17.6365 C   0  0  0  0  0  0  0  0  0  0  0  0
   16.5303    1.4191   17.9430 O   0  0  0  0  0  0  0  0  0  0  0  0
   15.7714    1.8658   19.0779 C   0  0  0  0  0  0  0  0  0  0  0  0
   16.0610    1.1873   20.4151 C   0  0  0  0  0  0  0  0  0  0  0  0
   15.2021    1.6385   21.3595 F   0  0  0  0  0  0  0  0  0  0  0  0
   15.9113   -0.1534   20.3597 F   0  0  0  0  0  0  0  0  0  0  0  0
   17.3146    1.4460   20.8462 F   0  0  0  0  0  0  0  0  0  0  0  0
   13.6396   -2.1451   16.1719 C   0  0  0  0  0  0  0  0  0  0  0  0
   13.2789   -1.4035   15.1419 N   0  0  0  0  0  0  0  0  0  0  0  0
   12.1214   -1.9047   14.5911 C   0  0  0  0  0  0  0  0  0  0  0  0
   11.6222   -3.0331   15.1983 C   0  0  0  0  0  0  0  0  0  0  0  0
   12.6405   -3.4992   16.4923 S   0  0  0  0  0  0  0  0  0  0  0  0
  2  1  1  6
  2  3  1  0
  3  4  1  0
  4  5  1  0
  5  6  1  0
  6  7  1  0
  7  8  1  0
  7  9  1  0
  7 10  1  0
  2 11  1  0
 11 12  2  0
 12 13  1  0
 13 14  2  0
 14 15  1  0
 15 11  1  0
M  END
>  <smiles>  (46) 
C78280-P71

>  <fragmenstein_error>  (46) 


>  <ref_pdb>  (46) 
99

>  <HIPPO Compound ID>  (46) 
10608

>  <fragmenstein_runtime>  (46) 
5.132496

>  <Energy>  (46) 
74.83803

>  <fragmenstein_outcome>  (46) 
acceptable

>  <tags>  (46) 
{'fragmenstein_placed', 'openbind_d68ev3c_c1_knitwork_impure'}

>  <HIPPO Pose ID>  (46) 
53083

>  <inchikey>  (46) 
KPBMRSFRQGKODS-UHFFFAOYSA-N

>  <alias>  (46) 
O[C@@H](CCOCC(F)(F)F)c1nccs1

>  <scratch_subdir>  (46) 
/opt/xchem-fragalysis-2/maxwin/BulkDock/SCRATCH/511022/C78280-P71

>  <fragmenstein_mode>  (46) 
expansion

$$$$
CCCOCC[C@@H](O)c1nccs1
     RDKit          3D

 13 13  0  0  0  0  0  0  0  0999 V2000
   17.0795    0.5961   20.9064 C   0  0  0  0  0  0  0  0  0  0  0  0
   15.6761    0.7795   20.3566 C   0  0  0  0  0  0  0  0  0  0  0  0
   15.6239    1.6907   19.1319 C   0  0  0  0  0  0  0  0  0  0  0  0
   16.5005    1.3256   18.0691 O   0  0  0  0  0  0  0  0  0  0  0  0
   16.4214   -0.0229   17.6099 C   0  0  0  0  0  0  0  0  0  0  0  0
   15.0314   -0.4105   17.1384 C   0  0  0  0  0  0  0  0  0  0  0  0
   15.0429   -1.7876   16.4861 C   0  0  1  0  0  0  0  0  0  0  0  0
   15.3571   -2.7842   17.4598 O   0  0  0  0  0  0  0  0  0  0  0  0
   13.7094   -2.0478   15.8491 C   0  0  0  0  0  0  0  0  0  0  0  0
   13.2372   -1.2893   14.8807 N   0  0  0  0  0  0  0  0  0  0  0  0
   12.0096   -1.7552   14.4800 C   0  0  0  0  0  0  0  0  0  0  0  0
   11.5564   -2.8744   15.1379 C   0  0  0  0  0  0  0  0  0  0  0  0
   12.6876   -3.3435   16.3301 S   0  0  0  0  0  0  0  0  0  0  0  0
  1  2  1  0
  2  3  1  0
  3  4  1  0
  4  5  1  0
  5  6  1  0
  6  7  1  0
  7  8  1  1
  7  9  1  0
  9 10  2  0
 10 11  1  0
 11 12  2  0
 12 13  1  0
 13  9  1  0
M  END
>  <smiles>  (47) 
C78282-P71

>  <fragmenstein_error>  (47) 


>  <ref_pdb>  (47) 
99

>  <HIPPO Compound ID>  (47) 
48494

>  <fragmenstein_runtime>  (47) 
3.797686

>  <Energy>  (47) 
30.233939

>  <fragmenstein_outcome>  (47) 
acceptable

>  <tags>  (47) 
{'fragmenstein_placed', 'openbind_d68ev3c_c1_knitwork_impure'}

>  <HIPPO Pose ID>  (47) 
53084

>  <inchikey>  (47) 
MPSBFLLDTHQKOR-UHFFFAOYSA-N

>  <alias>  (47) 
CCCOCC[C@@H](O)c1nccs1

>  <scratch_subdir>  (47) 
/opt/xchem-fragalysis-2/maxwin/BulkDock/SCRATCH/511022/C78282-P71

>  <fragmenstein_mode>  (47) 
expansion

$$$$
O=C(O)CC1=NN(c2ncc[nH]2)C(=O)C1
     RDKit          3D

 15 16  0  0  0  0  0  0  0  0999 V2000
   11.5582   -0.5635   16.3701 O   0  0  0  0  0  0  0  0  0  0  0  0
   11.1744   -1.1711   15.3841 C   0  0  0  0  0  0  0  0  0  0  0  0
    9.9281   -0.9948   14.9111 O   0  0  0  0  0  0  0  0  0  0  0  0
   12.0117   -2.1708   14.6589 C   0  0  0  0  0  0  0  0  0  0  0  0
   13.0780   -2.7609   15.5364 C   0  0  0  0  0  0  0  0  0  0  0  0
   14.3499   -2.5354   15.3951 N   0  0  0  0  0  0  0  0  0  0  0  0
   14.9762   -3.3838   16.2972 N   0  0  0  0  0  0  0  0  0  0  0  0
   16.3421   -3.5219   16.3143 C   0  0  0  0  0  0  0  0  0  0  0  0
   17.0920   -4.3357   17.0252 N   0  0  0  0  0  0  0  0  0  0  0  0
   18.3866   -4.0787   16.6524 C   0  0  0  0  0  0  0  0  0  0  0  0
   18.4316   -3.0955   15.6938 C   0  0  0  0  0  0  0  0  0  0  0  0
   17.1256   -2.7544   15.4883 N   0  0  0  0  0  0  0  0  0  0  0  0
   14.1168   -4.2076   17.0327 C   0  0  0  0  0  0  0  0  0  0  0  0
   14.3194   -5.1318   17.8033 O   0  0  0  0  0  0  0  0  0  0  0  0
   12.7583   -3.7094   16.6512 C   0  0  0  0  0  0  0  0  0  0  0  0
  1  2  2  0
  2  3  1  0
  2  4  1  0
  4  5  1  0
  5  6  2  0
  6  7  1  0
  7  8  1  0
  8  9  2  0
  9 10  1  0
 10 11  2  0
 11 12  1  0
  7 13  1  0
 13 14  2  0
 13 15  1  0
 15  5  1  0
 12  8  1  0
M  END
>  <smiles>  (48) 
C64194-P98

>  <fragmenstein_error>  (48) 


>  <ref_pdb>  (48) 
99

>  <HIPPO Compound ID>  (48) 
49683

>  <fragmenstein_runtime>  (48) 
1.163145

>  <Energy>  (48) 
-3.97029

>  <fragmenstein_outcome>  (48) 
acceptable

>  <tags>  (48) 
{'fragmenstein_placed', 'openbind_d68ev3c_c1_knitwork_impure'}

>  <HIPPO Pose ID>  (48) 
53171

>  <inchikey>  (48) 
AYWQGUHSLKGFBJ-UHFFFAOYSA-N

>  <alias>  (48) 
O=C(O)CC1=NN(c2ncc[nH]2)C(=O)C1

>  <scratch_subdir>  (48) 
/opt/xchem-fragalysis-2/maxwin/BulkDock/SCRATCH/511022/C64194-P98

>  <fragmenstein_mode>  (48) 
expansion

$$$$
N#CCC1=NN(c2ncc[nH]2)C(=O)C1
     RDKit          3D

 14 15  0  0  0  0  0  0  0  0999 V2000
   10.4906   -0.7127   15.9771 N   0  0  0  0  0  0  0  0  0  0  0  0
   11.1972   -1.4201   15.3878 C   0  0  0  0  0  0  0  0  0  0  0  0
   12.1067   -2.3142   14.6891 C   0  0  0  0  0  0  0  0  0  0  0  0
   13.1466   -2.8506   15.6208 C   0  0  0  0  0  0  0  0  0  0  0  0
   14.4136   -2.5795   15.5206 N   0  0  0  0  0  0  0  0  0  0  0  0
   15.0404   -3.4184   16.4265 N   0  0  0  0  0  0  0  0  0  0  0  0
   16.4081   -3.5370   16.4572 C   0  0  0  0  0  0  0  0  0  0  0  0
   17.1578   -4.3518   17.1660 N   0  0  0  0  0  0  0  0  0  0  0  0
   18.4543   -4.0757   16.8144 C   0  0  0  0  0  0  0  0  0  0  0  0
   18.5006   -3.0797   15.8694 C   0  0  0  0  0  0  0  0  0  0  0  0
   17.1935   -2.7505   15.6509 N   0  0  0  0  0  0  0  0  0  0  0  0
   14.1856   -4.2719   17.1328 C   0  0  0  0  0  0  0  0  0  0  0  0
   14.3922   -5.1973   17.8993 O   0  0  0  0  0  0  0  0  0  0  0  0
   12.8232   -3.8093   16.7233 C   0  0  0  0  0  0  0  0  0  0  0  0
  1  2  3  0
  2  3  1  0
  3  4  1  0
  4  5  2  0
  5  6  1  0
  6  7  1  0
  7  8  2  0
  8  9  1  0
  9 10  2  0
 10 11  1  0
  6 12  1  0
 12 13  2  0
 12 14  1  0
 14  4  1  0
 11  7  1  0
M  END
>  <smiles>  (49) 
C64197-P98

>  <fragmenstein_error>  (49) 


>  <ref_pdb>  (49) 
99

>  <HIPPO Compound ID>  (49) 
76545

>  <fragmenstein_runtime>  (49) 
0.86394

>  <Energy>  (49) 
15.647556

>  <fragmenstein_outcome>  (49) 
acceptable

>  <tags>  (49) 
{'fragmenstein_placed', 'openbind_d68ev3c_c1_knitwork_impure'}

>  <HIPPO Pose ID>  (49) 
53174

>  <inchikey>  (49) 
DDTJSGKPKOVDSU-UHFFFAOYSA-N

>  <alias>  (49) 
N#CCC1=NN(c2ncc[nH]2)C(=O)C1

>  <scratch_subdir>  (49) 
/opt/xchem-fragalysis-2/maxwin/BulkDock/SCRATCH/511022/C64197-P98

>  <fragmenstein_mode>  (49) 
expansion

$$$$
CCOC(=O)[C@@H](C)C1=NN(c2ncc[nH]2)C(=O)C1
     RDKit          3D

 18 19  0  0  0  0  0  0  0  0999 V2000
   13.4204    1.9393   16.2808 C   0  0  0  0  0  0  0  0  0  0  0  0
   12.2727    1.4585   15.4146 C   0  0  0  0  0  0  0  0  0  0  0  0
   12.5068    0.0836   15.0749 O   0  0  0  0  0  0  0  0  0  0  0  0
   11.5947   -0.8306   15.4937 C   0  0  0  0  0  0  0  0  0  0  0  0
   10.6032   -0.5887   16.1757 O   0  0  0  0  0  0  0  0  0  0  0  0
   11.9645   -2.2236   15.0560 C   0  0  1  0  0  0  0  0  0  0  0  0
   12.2691   -2.2786   13.5652 C   0  0  0  0  0  0  0  0  0  0  0  0
   13.0916   -2.8216   15.8433 C   0  0  0  0  0  0  0  0  0  0  0  0
   14.3473   -2.5250   15.6864 N   0  0  0  0  0  0  0  0  0  0  0  0
   15.0397   -3.4103   16.4910 N   0  0  0  0  0  0  0  0  0  0  0  0
   16.4090   -3.4888   16.4474 C   0  0  0  0  0  0  0  0  0  0  0  0
   17.2196   -4.3162   17.0700 N   0  0  0  0  0  0  0  0  0  0  0  0
   18.4864   -3.9774   16.6681 C   0  0  0  0  0  0  0  0  0  0  0  0
   18.4522   -2.9294   15.7803 C   0  0  0  0  0  0  0  0  0  0  0  0
   17.1260   -2.6329   15.6481 N   0  0  0  0  0  0  0  0  0  0  0  0
   14.2432   -4.3147   17.1977 C   0  0  0  0  0  0  0  0  0  0  0  0
   14.5095   -5.2656   17.9132 O   0  0  0  0  0  0  0  0  0  0  0  0
   12.8533   -3.8679   16.8829 C   0  0  0  0  0  0  0  0  0  0  0  0
  1  2  1  0
  2  3  1  0
  3  4  1  0
  4  5  2  0
  4  6  1  0
  6  7  1  6
  6  8  1  0
  8  9  2  0
  9 10  1  0
 10 11  1  0
 11 12  2  0
 12 13  1  0
 13 14  2  0
 14 15  1  0
 10 16  1  0
 16 17  2  0
 16 18  1  0
 18  8  1  0
 15 11  1  0
M  END
>  <smiles>  (50) 
C64201-P98

>  <fragmenstein_error>  (50) 


>  <ref_pdb>  (50) 
99

>  <HIPPO Compound ID>  (50) 
56038

>  <fragmenstein_runtime>  (50) 
1.675647

>  <Energy>  (50) 
8.099337

>  <fragmenstein_outcome>  (50) 
acceptable

>  <tags>  (50) 
{'fragmenstein_placed', 'openbind_d68ev3c_c1_knitwork_impure'}

>  <HIPPO Pose ID>  (50) 
53177

>  <inchikey>  (50) 
BOTVXLQCDHVHAJ-UHFFFAOYSA-N

>  <alias>  (50) 
CCOC(=O)[C@@H](C)C1=NN(c2ncc[nH]2)C(=O)C1

>  <scratch_subdir>  (50) 
/opt/xchem-fragalysis-2/maxwin/BulkDock/SCRATCH/511022/C64201-P98

>  <fragmenstein_mode>  (50) 
expansion

$$$$
COC(=O)CC1=NN(c2ncc[nH]2)C(=O)C1
     RDKit          3D

 16 17  0  0  0  0  0  0  0  0999 V2000
   12.7199    0.3735   13.8911 C   0  0  0  0  0  0  0  0  0  0  0  0
   11.8264    0.2466   15.0038 O   0  0  0  0  0  0  0  0  0  0  0  0
   11.2419   -0.9358   15.3088 C   0  0  0  0  0  0  0  0  0  0  0  0
   10.2892   -0.9677   16.0887 O   0  0  0  0  0  0  0  0  0  0  0  0
   11.8488   -2.1969   14.7665 C   0  0  0  0  0  0  0  0  0  0  0  0
   12.9514   -2.7621   15.6039 C   0  0  0  0  0  0  0  0  0  0  0  0
   14.2110   -2.4844   15.4391 N   0  0  0  0  0  0  0  0  0  0  0  0
   14.8911   -3.3338   16.3029 N   0  0  0  0  0  0  0  0  0  0  0  0
   16.2611   -3.4312   16.2829 C   0  0  0  0  0  0  0  0  0  0  0  0
   17.0522   -4.2266   16.9695 N   0  0  0  0  0  0  0  0  0  0  0  0
   18.3289   -3.9322   16.5650 C   0  0  0  0  0  0  0  0  0  0  0  0
   18.3215   -2.9434   15.6113 C   0  0  0  0  0  0  0  0  0  0  0  0
   17.0015   -2.6384   15.4414 N   0  0  0  0  0  0  0  0  0  0  0  0
   14.0794   -4.2037   17.0406 C   0  0  0  0  0  0  0  0  0  0  0  0
   14.3335   -5.1332   17.7886 O   0  0  0  0  0  0  0  0  0  0  0  0
   12.6971   -3.7417   16.7052 C   0  0  0  0  0  0  0  0  0  0  0  0
  1  2  1  0
  2  3  1  0
  3  4  2  0
  3  5  1  0
  5  6  1  0
  6  7  2  0
  7  8  1  0
  8  9  1  0
  9 10  2  0
 10 11  1  0
 11 12  2  0
 12 13  1  0
  8 14  1  0
 14 15  2  0
 14 16  1  0
 16  6  1  0
 13  9  1  0
M  END
>  <smiles>  (51) 
C64203-P98

>  <fragmenstein_error>  (51) 


>  <ref_pdb>  (51) 
99

>  <HIPPO Compound ID>  (51) 
60920

>  <fragmenstein_runtime>  (51) 
1.437272

>  <Energy>  (51) 
14.801571

>  <fragmenstein_outcome>  (51) 
acceptable

>  <tags>  (51) 
{'fragmenstein_placed', 'openbind_d68ev3c_c1_knitwork_impure'}

>  <HIPPO Pose ID>  (51) 
53180

>  <inchikey>  (51) 
HTMKAMYINHNGAT-UHFFFAOYSA-N

>  <alias>  (51) 
COC(=O)CC1=NN(c2ncc[nH]2)C(=O)C1

>  <scratch_subdir>  (51) 
/opt/xchem-fragalysis-2/maxwin/BulkDock/SCRATCH/511022/C64203-P98

>  <fragmenstein_mode>  (51) 
expansion

$$$$
C[C@H](NC(=O)OC(C)(C)C)C1=NN(C2CSC2)C(=O)C1
     RDKit          3D

 20 21  0  0  0  0  0  0  0  0999 V2000
   11.2832   -2.7385   14.7656 C   0  0  0  0  0  0  0  0  0  0  0  0
   12.3878   -1.8875   15.3617 C   0  0  2  0  0  0  0  0  0  0  0  0
   12.9394   -1.0264   14.3466 N   0  0  0  0  0  0  0  0  0  0  0  0
   13.7574    0.2421   14.4692 C   0  0  0  0  0  0  0  0  0  0  0  0
   14.1910    0.7683   15.4039 O   0  0  0  0  0  0  0  0  0  0  0  0
   13.8947    0.6626   13.1871 O   0  0  0  0  0  0  0  0  0  0  0  0
   14.6801    1.8285   12.8307 C   0  0  0  0  0  0  0  0  0  0  0  0
   16.1704    1.4813   12.8693 C   0  0  0  0  0  0  0  0  0  0  0  0
   14.3662    3.0603   13.6847 C   0  0  0  0  0  0  0  0  0  0  0  0
   14.2713    2.1234   11.3822 C   0  0  0  0  0  0  0  0  0  0  0  0
   13.4547   -2.7500   15.9958 C   0  0  0  0  0  0  0  0  0  0  0  0
   14.7325   -2.6091   15.8090 N   0  0  0  0  0  0  0  0  0  0  0  0
   15.3490   -3.5526   16.5963 N   0  0  0  0  0  0  0  0  0  0  0  0
   16.8172   -3.6237   16.6002 C   0  0  0  0  0  0  0  0  0  0  0  0
   17.4105   -5.0048   16.2129 C   0  0  0  0  0  0  0  0  0  0  0  0
   18.8446   -4.6704   17.2993 S   0  0  0  0  0  0  0  0  0  0  0  0
   17.4872   -3.6619   18.0032 C   0  0  0  0  0  0  0  0  0  0  0  0
   14.4629   -4.3676   17.2981 C   0  0  0  0  0  0  0  0  0  0  0  0
   14.6941   -5.3274   18.0127 O   0  0  0  0  0  0  0  0  0  0  0  0
   13.1131   -3.8277   16.9801 C   0  0  0  0  0  0  0  0  0  0  0  0
  2  1  1  6
  2  3  1  0
  3  4  1  0
  4  5  2  0
  4  6  1  0
  6  7  1  0
  7  8  1  0
  7  9  1  0
  7 10  1  0
  2 11  1  0
 11 12  2  0
 12 13  1  0
 13 14  1  0
 14 15  1  0
 15 16  1  0
 16 17  1  0
 13 18  1  0
 18 19  2  0
 18 20  1  0
 20 11  1  0
 17 14  1  0
M  END
>  <smiles>  (52) 
C80318-P98

>  <fragmenstein_error>  (52) 


>  <ref_pdb>  (52) 
99

>  <HIPPO Compound ID>  (52) 
47435

>  <fragmenstein_runtime>  (52) 
26.862747

>  <Energy>  (52) 
6.950993

>  <fragmenstein_outcome>  (52) 
acceptable

>  <tags>  (52) 
{'fragmenstein_placed', 'openbind_d68ev3c_c1_knitwork_impure'}

>  <HIPPO Pose ID>  (52) 
53251

>  <inchikey>  (52) 
HTVHCXWQVWWBFD-UHFFFAOYSA-N

>  <alias>  (52) 
C[C@H](NC(=O)OC(C)(C)C)C1=NN(C2CSC2)C(=O)C1

>  <scratch_subdir>  (52) 
/opt/xchem-fragalysis-2/maxwin/BulkDock/SCRATCH/511022/C80318-P98

>  <fragmenstein_mode>  (52) 
expansion

$$$$
CN1N=C(CNC(=O)OC(C)(C)C)CC1=O
     RDKit          3D

 16 16  0  0  0  0  0  0  0  0999 V2000
   16.5888   -3.6003   16.6147 C   0  0  0  0  0  0  0  0  0  0  0  0
   15.1559   -3.5020   16.5379 N   0  0  0  0  0  0  0  0  0  0  0  0
   14.5637   -2.5191   15.7823 N   0  0  0  0  0  0  0  0  0  0  0  0
   13.2814   -2.6679   15.9358 C   0  0  0  0  0  0  0  0  0  0  0  0
   12.2160   -1.7984   15.3221 C   0  0  0  0  0  0  0  0  0  0  0  0
   12.7460   -0.9547   14.2924 N   0  0  0  0  0  0  0  0  0  0  0  0
   13.6330    0.2723   14.3821 C   0  0  0  0  0  0  0  0  0  0  0  0
   14.1467    0.7625   15.2964 O   0  0  0  0  0  0  0  0  0  0  0  0
   13.7168    0.7265   13.1049 O   0  0  0  0  0  0  0  0  0  0  0  0
   14.5662    1.8515   12.7579 C   0  0  0  0  0  0  0  0  0  0  0  0
   16.0396    1.4307   12.7788 C   0  0  0  0  0  0  0  0  0  0  0  0
   14.3223    3.0867   13.6317 C   0  0  0  0  0  0  0  0  0  0  0  0
   14.1674    2.1920   11.3177 C   0  0  0  0  0  0  0  0  0  0  0  0
   12.9193   -3.7825   16.8663 C   0  0  0  0  0  0  0  0  0  0  0  0
   14.2634   -4.3393   17.1945 C   0  0  0  0  0  0  0  0  0  0  0  0
   14.4882   -5.3096   17.8977 O   0  0  0  0  0  0  0  0  0  0  0  0
  1  2  1  0
  2  3  1  0
  3  4  2  0
  4  5  1  0
  5  6  1  0
  6  7  1  0
  7  8  2  0
  7  9  1  0
  9 10  1  0
 10 11  1  0
 10 12  1  0
 10 13  1  0
  4 14  1  0
 14 15  1  0
 15 16  2  0
 15  2  1  0
M  END
>  <smiles>  (53) 
C80320-P98

>  <fragmenstein_error>  (53) 


>  <ref_pdb>  (53) 
99

>  <HIPPO Compound ID>  (53) 
76708

>  <fragmenstein_runtime>  (53) 
7.410222

>  <Energy>  (53) 
-9.874314

>  <fragmenstein_outcome>  (53) 
acceptable

>  <tags>  (53) 
{'fragmenstein_placed', 'openbind_d68ev3c_c1_knitwork_impure'}

>  <HIPPO Pose ID>  (53) 
53252

>  <inchikey>  (53) 
ZTCUYYQHEBEGRG-UHFFFAOYSA-N

>  <alias>  (53) 
CN1N=C(CNC(=O)OC(C)(C)C)CC1=O

>  <scratch_subdir>  (53) 
/opt/xchem-fragalysis-2/maxwin/BulkDock/SCRATCH/511022/C80320-P98

>  <fragmenstein_mode>  (53) 
expansion

$$$$
C[C@H](NC(=O)OC(C)(C)C)C1=NN(Cc2ccccc2)C(=O)C1
     RDKit          3D

 23 24  0  0  0  0  0  0  0  0999 V2000
   11.3440   -2.7348   14.7368 C   0  0  0  0  0  0  0  0  0  0  0  0
   12.4672   -1.9108   15.3370 C   0  0  2  0  0  0  0  0  0  0  0  0
   13.0511   -1.0716   14.3225 N   0  0  0  0  0  0  0  0  0  0  0  0
   13.8325    0.2195   14.4425 C   0  0  0  0  0  0  0  0  0  0  0  0
   14.2050    0.7871   15.3792 O   0  0  0  0  0  0  0  0  0  0  0  0
   14.0057    0.6126   13.1561 O   0  0  0  0  0  0  0  0  0  0  0  0
   14.7412    1.8103   12.7996 C   0  0  0  0  0  0  0  0  0  0  0  0
   14.3686    3.0371   13.6379 C   0  0  0  0  0  0  0  0  0  0  0  0
   16.2430    1.5242   12.8589 C   0  0  0  0  0  0  0  0  0  0  0  0
   14.3353    2.0761   11.3448 C   0  0  0  0  0  0  0  0  0  0  0  0
   13.5002   -2.7843   16.0109 C   0  0  0  0  0  0  0  0  0  0  0  0
   14.7872   -2.6201   15.9280 N   0  0  0  0  0  0  0  0  0  0  0  0
   15.3459   -3.5764   16.7479 N   0  0  0  0  0  0  0  0  0  0  0  0
   16.7654   -3.6073   17.0105 C   0  0  0  0  0  0  0  0  0  0  0  0
   17.4872   -4.6746   16.2271 C   0  0  0  0  0  0  0  0  0  0  0  0
   18.1004   -4.3666   15.0052 C   0  0  0  0  0  0  0  0  0  0  0  0
   18.7930   -5.3474   14.2918 C   0  0  0  0  0  0  0  0  0  0  0  0
   18.8598   -6.6511   14.7798 C   0  0  0  0  0  0  0  0  0  0  0  0
   18.2379   -6.9745   15.9836 C   0  0  0  0  0  0  0  0  0  0  0  0
   17.5587   -5.9914   16.7052 C   0  0  0  0  0  0  0  0  0  0  0  0
   14.4246   -4.3956   17.3851 C   0  0  0  0  0  0  0  0  0  0  0  0
   14.6112   -5.3318   18.1433 O   0  0  0  0  0  0  0  0  0  0  0  0
   13.0993   -3.8831   16.9497 C   0  0  0  0  0  0  0  0  0  0  0  0
  2  1  1  6
  2  3  1  0
  3  4  1  0
  4  5  2  0
  4  6  1  0
  6  7  1  0
  7  8  1  0
  7  9  1  0
  7 10  1  0
  2 11  1  0
 11 12  2  0
 12 13  1  0
 13 14  1  0
 14 15  1  0
 15 16  2  0
 16 17  1  0
 17 18  2  0
 18 19  1  0
 19 20  2  0
 13 21  1  0
 21 22  2  0
 21 23  1  0
 23 11  1  0
 20 15  1  0
M  END
>  <smiles>  (54) 
C80321-P98

>  <fragmenstein_error>  (54) 


>  <ref_pdb>  (54) 
99

>  <HIPPO Compound ID>  (54) 
38631

>  <fragmenstein_runtime>  (54) 
15.016988

>  <Energy>  (54) 
19.461086

>  <fragmenstein_outcome>  (54) 
acceptable

>  <tags>  (54) 
{'fragmenstein_placed', 'openbind_d68ev3c_c1_knitwork_impure'}

>  <HIPPO Pose ID>  (54) 
53253

>  <inchikey>  (54) 
BVEWYMNMZJLUGB-UHFFFAOYSA-N

>  <alias>  (54) 
C[C@H](NC(=O)OC(C)(C)C)C1=NN(Cc2ccccc2)C(=O)C1

>  <scratch_subdir>  (54) 
/opt/xchem-fragalysis-2/maxwin/BulkDock/SCRATCH/511022/C80321-P98

>  <fragmenstein_mode>  (54) 
expansion

$$$$
C[C@H](NC(=O)OC(C)(C)C)C1=NN(c2ccnn2C)C(=O)C1
     RDKit          3D

 22 23  0  0  0  0  0  0  0  0999 V2000
   11.2559   -2.7485   14.7794 C   0  0  0  0  0  0  0  0  0  0  0  0
   12.3595   -1.8891   15.3679 C   0  0  2  0  0  0  0  0  0  0  0  0
   12.8839   -1.0158   14.3459 N   0  0  0  0  0  0  0  0  0  0  0  0
   13.8148    0.1744   14.4500 C   0  0  0  0  0  0  0  0  0  0  0  0
   14.3787    0.6089   15.3621 O   0  0  0  0  0  0  0  0  0  0  0  0
   13.8508    0.6716   13.1884 O   0  0  0  0  0  0  0  0  0  0  0  0
   14.6703    1.8149   12.8357 C   0  0  0  0  0  0  0  0  0  0  0  0
   16.1499    1.4209   12.8070 C   0  0  0  0  0  0  0  0  0  0  0  0
   14.2210    2.1696   11.4128 C   0  0  0  0  0  0  0  0  0  0  0  0
   14.4236    3.0259   13.7402 C   0  0  0  0  0  0  0  0  0  0  0  0
   13.4358   -2.7623   15.9711 C   0  0  0  0  0  0  0  0  0  0  0  0
   14.6984   -2.6923   15.6801 N   0  0  0  0  0  0  0  0  0  0  0  0
   15.3248   -3.6419   16.4399 N   0  0  0  0  0  0  0  0  0  0  0  0
   16.6801   -3.8807   16.3369 C   0  0  0  0  0  0  0  0  0  0  0  0
   17.4657   -4.8147   16.9827 C   0  0  0  0  0  0  0  0  0  0  0  0
   18.7653   -4.6230   16.4889 C   0  0  0  0  0  0  0  0  0  0  0  0
   18.8265   -3.6425   15.5894 N   0  0  0  0  0  0  0  0  0  0  0  0
   17.5487   -3.1989   15.5103 N   0  0  0  0  0  0  0  0  0  0  0  0
   17.2614   -2.1083   14.6078 C   0  0  0  0  0  0  0  0  0  0  0  0
   14.4640   -4.3885   17.2559 C   0  0  0  0  0  0  0  0  0  0  0  0
   14.6704   -5.3358   17.9981 O   0  0  0  0  0  0  0  0  0  0  0  0
   13.1212   -3.7882   17.0163 C   0  0  0  0  0  0  0  0  0  0  0  0
  2  1  1  6
  2  3  1  0
  3  4  1  0
  4  5  2  0
  4  6  1  0
  6  7  1  0
  7  8  1  0
  7  9  1  0
  7 10  1  0
  2 11  1  0
 11 12  2  0
 12 13  1  0
 13 14  1  0
 14 15  2  0
 15 16  1  0
 16 17  2  0
 17 18  1  0
 18 19  1  0
 13 20  1  0
 20 21  2  0
 20 22  1  0
 22 11  1  0
 18 14  1  0
M  END
>  <smiles>  (55) 
C80325-P98

>  <fragmenstein_error>  (55) 


>  <ref_pdb>  (55) 
99

>  <HIPPO Compound ID>  (55) 
46521

>  <fragmenstein_runtime>  (55) 
14.366035

>  <Energy>  (55) 
9.460931

>  <fragmenstein_outcome>  (55) 
acceptable

>  <tags>  (55) 
{'fragmenstein_placed', 'openbind_d68ev3c_c1_knitwork_impure'}

>  <HIPPO Pose ID>  (55) 
53256

>  <inchikey>  (55) 
BVKNSWAVEYMORN-UHFFFAOYSA-N

>  <alias>  (55) 
C[C@H](NC(=O)OC(C)(C)C)C1=NN(c2ccnn2C)C(=O)C1

>  <scratch_subdir>  (55) 
/opt/xchem-fragalysis-2/maxwin/BulkDock/SCRATCH/511022/C80325-P98

>  <fragmenstein_mode>  (55) 
expansion

$$$$
C[C@H](NC(=O)OC(C)(C)C)C1=NN(CC(C)(C)CO)C(=O)C1
     RDKit          3D

 22 22  0  0  0  0  0  0  0  0999 V2000
   11.6439   -2.5741   14.6043 C   0  0  0  0  0  0  0  0  0  0  0  0
   12.6873   -1.8190   15.3991 C   0  0  2  0  0  0  0  0  0  0  0  0
   13.5010   -1.0119   14.5248 N   0  0  0  0  0  0  0  0  0  0  0  0
   13.3581    0.4318   14.1047 C   0  0  0  0  0  0  0  0  0  0  0  0
   12.5219    1.1987   14.3270 O   0  0  0  0  0  0  0  0  0  0  0  0
   14.4785    0.6648   13.3760 O   0  0  0  0  0  0  0  0  0  0  0  0
   14.7215    1.9478   12.7521 C   0  0  0  0  0  0  0  0  0  0  0  0
   14.8127    3.0688   13.7906 C   0  0  0  0  0  0  0  0  0  0  0  0
   13.6640    2.2343   11.6841 C   0  0  0  0  0  0  0  0  0  0  0  0
   16.0911    1.7946   12.0717 C   0  0  0  0  0  0  0  0  0  0  0  0
   13.6279   -2.7181   16.1549 C   0  0  0  0  0  0  0  0  0  0  0  0
   14.9036   -2.4838   16.2496 N   0  0  0  0  0  0  0  0  0  0  0  0
   15.4241   -3.4889   17.0198 N   0  0  0  0  0  0  0  0  0  0  0  0
   16.8124   -3.4466   17.4281 C   0  0  0  0  0  0  0  0  0  0  0  0
   17.8455   -4.0683   16.4553 C   0  0  0  0  0  0  0  0  0  0  0  0
   19.2319   -3.4857   16.8161 C   0  0  0  0  0  0  0  0  0  0  0  0
   17.5453   -3.6972   14.9939 C   0  0  0  0  0  0  0  0  0  0  0  0
   17.9482   -5.5976   16.6109 C   0  0  0  0  0  0  0  0  0  0  0  0
   16.7484   -6.2604   16.2624 O   0  0  0  0  0  0  0  0  0  0  0  0
   14.4852   -4.4140   17.4524 C   0  0  0  0  0  0  0  0  0  0  0  0
   14.6688   -5.4273   18.1066 O   0  0  0  0  0  0  0  0  0  0  0  0
   13.1768   -3.9075   16.9404 C   0  0  0  0  0  0  0  0  0  0  0  0
  2  1  1  6
  2  3  1  0
  3  4  1  0
  4  5  2  0
  4  6  1  0
  6  7  1  0
  7  8  1  0
  7  9  1  0
  7 10  1  0
  2 11  1  0
 11 12  2  0
 12 13  1  0
 13 14  1  0
 14 15  1  0
 15 16  1  0
 15 17  1  0
 15 18  1  0
 18 19  1  0
 13 20  1  0
 20 21  2  0
 20 22  1  0
 22 11  1  0
M  END
>  <smiles>  (56) 
C80327-P98

>  <fragmenstein_error>  (56) 


>  <ref_pdb>  (56) 
99

>  <HIPPO Compound ID>  (56) 
48391

>  <fragmenstein_runtime>  (56) 
18.25448

>  <Energy>  (56) 
0.11674

>  <fragmenstein_outcome>  (56) 
acceptable

>  <tags>  (56) 
{'fragmenstein_placed', 'openbind_d68ev3c_c1_knitwork_impure'}

>  <HIPPO Pose ID>  (56) 
53259

>  <inchikey>  (56) 
CUDCWVSGLJETTJ-UHFFFAOYSA-N

>  <alias>  (56) 
C[C@H](NC(=O)OC(C)(C)C)C1=NN(CC(C)(C)CO)C(=O)C1

>  <scratch_subdir>  (56) 
/opt/xchem-fragalysis-2/maxwin/BulkDock/SCRATCH/511022/C80327-P98

>  <fragmenstein_mode>  (56) 
expansion

$$$$
C[C@H](NC(=O)OC(C)(C)C)C1=NN(c2cccnn2)C(=O)C1
     RDKit          3D

 22 23  0  0  0  0  0  0  0  0999 V2000
   11.2721   -2.7291   14.7737 C   0  0  0  0  0  0  0  0  0  0  0  0
   12.3725   -1.8772   15.3773 C   0  0  2  0  0  0  0  0  0  0  0  0
   12.9024   -0.9929   14.3731 N   0  0  0  0  0  0  0  0  0  0  0  0
   13.6576    0.3115   14.5098 C   0  0  0  0  0  0  0  0  0  0  0  0
   13.9151    0.9347   15.4496 O   0  0  0  0  0  0  0  0  0  0  0  0
   13.9428    0.6464   13.2276 O   0  0  0  0  0  0  0  0  0  0  0  0
   14.7115    1.8201   12.8605 C   0  0  0  0  0  0  0  0  0  0  0  0
   14.3685    3.0758   13.6664 C   0  0  0  0  0  0  0  0  0  0  0  0
   16.2027    1.4906   12.9496 C   0  0  0  0  0  0  0  0  0  0  0  0
   14.3354    2.0655   11.3938 C   0  0  0  0  0  0  0  0  0  0  0  0
   13.4515   -2.7448   15.9786 C   0  0  0  0  0  0  0  0  0  0  0  0
   14.7175   -2.6475   15.7156 N   0  0  0  0  0  0  0  0  0  0  0  0
   15.3516   -3.6127   16.4745 N   0  0  0  0  0  0  0  0  0  0  0  0
   16.7527   -3.7453   16.3490 C   0  0  0  0  0  0  0  0  0  0  0  0
   17.4595   -4.7240   17.0367 C   0  0  0  0  0  0  0  0  0  0  0  0
   18.8415   -4.8202   16.8768 C   0  0  0  0  0  0  0  0  0  0  0  0
   19.4683   -3.9315   16.0314 C   0  0  0  0  0  0  0  0  0  0  0  0
   18.7868   -2.9873   15.3649 N   0  0  0  0  0  0  0  0  0  0  0  0
   17.4220   -2.8981   15.5279 N   0  0  0  0  0  0  0  0  0  0  0  0
   14.4841   -4.3786   17.2500 C   0  0  0  0  0  0  0  0  0  0  0  0
   14.6851   -5.3347   17.9820 O   0  0  0  0  0  0  0  0  0  0  0  0
   13.1360   -3.7949   16.9970 C   0  0  0  0  0  0  0  0  0  0  0  0
  2  1  1  6
  2  3  1  0
  3  4  1  0
  4  5  2  0
  4  6  1  0
  6  7  1  0
  7  8  1  0
  7  9  1  0
  7 10  1  0
  2 11  1  0
 11 12  2  0
 12 13  1  0
 13 14  1  0
 14 15  2  0
 15 16  1  0
 16 17  2  0
 17 18  1  0
 18 19  2  0
 13 20  1  0
 20 21  2  0
 20 22  1  0
 22 11  1  0
 19 14  1  0
M  END
>  <smiles>  (57) 
C80329-P98

>  <fragmenstein_error>  (57) 


>  <ref_pdb>  (57) 
99

>  <HIPPO Compound ID>  (57) 
46386

>  <fragmenstein_runtime>  (57) 
14.23157

>  <Energy>  (57) 
27.803029

>  <fragmenstein_outcome>  (57) 
acceptable

>  <tags>  (57) 
{'fragmenstein_placed', 'openbind_d68ev3c_c1_knitwork_impure'}

>  <HIPPO Pose ID>  (57) 
53260

>  <inchikey>  (57) 
HQTWHNXFFFVQTQ-UHFFFAOYSA-N

>  <alias>  (57) 
C[C@H](NC(=O)OC(C)(C)C)C1=NN(c2cccnn2)C(=O)C1

>  <scratch_subdir>  (57) 
/opt/xchem-fragalysis-2/maxwin/BulkDock/SCRATCH/511022/C80329-P98

>  <fragmenstein_mode>  (57) 
expansion

$$$$
C[C@H](NC(=O)OC(C)(C)C)C1=NN(c2cncc(Cl)n2)C(=O)C1
     RDKit          3D

 23 24  0  0  0  0  0  0  0  0999 V2000
   11.6607   -2.3851   14.5571 C   0  0  0  0  0  0  0  0  0  0  0  0
   12.7108   -1.7097   15.4135 C   0  0  2  0  0  0  0  0  0  0  0  0
   13.5641   -0.8772   14.6057 N   0  0  0  0  0  0  0  0  0  0  0  0
   13.3841    0.5436   14.1296 C   0  0  0  0  0  0  0  0  0  0  0  0
   12.4868    1.2637   14.2398 O   0  0  0  0  0  0  0  0  0  0  0  0
   14.5353    0.7988   13.4606 O   0  0  0  0  0  0  0  0  0  0  0  0
   14.7508    2.0514   12.7716 C   0  0  0  0  0  0  0  0  0  0  0  0
   16.1500    1.9148   12.1504 C   0  0  0  0  0  0  0  0  0  0  0  0
   14.7564    3.2243   13.7527 C   0  0  0  0  0  0  0  0  0  0  0  0
   13.7268    2.2373   11.6495 C   0  0  0  0  0  0  0  0  0  0  0  0
   13.6170   -2.7107   16.0703 C   0  0  0  0  0  0  0  0  0  0  0  0
   14.9007   -2.7299   15.8804 N   0  0  0  0  0  0  0  0  0  0  0  0
   15.3942   -3.7607   16.6373 N   0  0  0  0  0  0  0  0  0  0  0  0
   16.7830   -4.0109   16.5824 C   0  0  0  0  0  0  0  0  0  0  0  0
   17.3690   -5.0736   17.2726 C   0  0  0  0  0  0  0  0  0  0  0  0
   18.7016   -5.3578   17.2317 N   0  0  0  0  0  0  0  0  0  0  0  0
   19.4407   -4.5276   16.4631 C   0  0  0  0  0  0  0  0  0  0  0  0
   18.8741   -3.4718   15.7752 C   0  0  0  0  0  0  0  0  0  0  0  0
   19.8131   -2.4249   14.7989 Cl  0  0  0  0  0  0  0  0  0  0  0  0
   17.5566   -3.1908   15.8178 N   0  0  0  0  0  0  0  0  0  0  0  0
   14.4166   -4.4551   17.3429 C   0  0  0  0  0  0  0  0  0  0  0  0
   14.5161   -5.4272   18.0721 O   0  0  0  0  0  0  0  0  0  0  0  0
   13.1328   -3.7594   17.0136 C   0  0  0  0  0  0  0  0  0  0  0  0
  2  1  1  6
  2  3  1  0
  3  4  1  0
  4  5  2  0
  4  6  1  0
  6  7  1  0
  7  8  1  0
  7  9  1  0
  7 10  1  0
  2 11  1  0
 11 12  2  0
 12 13  1  0
 13 14  1  0
 14 15  2  0
 15 16  1  0
 16 17  2  0
 17 18  1  0
 18 19  1  0
 18 20  2  0
 13 21  1  0
 21 22  2  0
 21 23  1  0
 23 11  1  0
 20 14  1  0
M  END
>  <smiles>  (58) 
C80334-P98

>  <fragmenstein_error>  (58) 


>  <ref_pdb>  (58) 
99

>  <HIPPO Compound ID>  (58) 
52439

>  <fragmenstein_runtime>  (58) 
18.733002

>  <Energy>  (58) 
55.857032

>  <fragmenstein_outcome>  (58) 
acceptable

>  <tags>  (58) 
{'fragmenstein_placed', 'openbind_d68ev3c_c1_knitwork_impure'}

>  <HIPPO Pose ID>  (58) 
53264

>  <inchikey>  (58) 
XEUAQBNZLSUSAG-UHFFFAOYSA-N

>  <alias>  (58) 
C[C@H](NC(=O)OC(C)(C)C)C1=NN(c2cncc(Cl)n2)C(=O)C1

>  <scratch_subdir>  (58) 
/opt/xchem-fragalysis-2/maxwin/BulkDock/SCRATCH/511022/C80334-P98

>  <fragmenstein_mode>  (58) 
expansion

$$$$
CCC(CC)N1N=C([C@H](C)NC(=O)OC(C)(C)C)CC1=O
     RDKit          3D

 21 21  0  0  0  0  0  0  0  0999 V2000
   17.4196   -5.3498   15.4822 C   0  0  0  0  0  0  0  0  0  0  0  0
   17.5166   -4.7326   16.8666 C   0  0  0  0  0  0  0  0  0  0  0  0
   16.7642   -3.3964   16.9904 C   0  0  0  0  0  0  0  0  0  0  0  0
   17.0024   -2.7937   18.3904 C   0  0  0  0  0  0  0  0  0  0  0  0
   16.4279   -1.3911   18.5467 C   0  0  0  0  0  0  0  0  0  0  0  0
   15.3399   -3.5172   16.6991 N   0  0  0  0  0  0  0  0  0  0  0  0
   14.7348   -2.5719   15.8994 N   0  0  0  0  0  0  0  0  0  0  0  0
   13.4555   -2.7710   15.9973 C   0  0  0  0  0  0  0  0  0  0  0  0
   12.3940   -1.9176   15.3402 C   0  0  2  0  0  0  0  0  0  0  0  0
   11.2932   -2.7743   14.7453 C   0  0  0  0  0  0  0  0  0  0  0  0
   12.9480   -1.0580   14.3234 N   0  0  0  0  0  0  0  0  0  0  0  0
   13.7925    0.1941   14.4447 C   0  0  0  0  0  0  0  0  0  0  0  0
   14.2498    0.7040   15.3775 O   0  0  0  0  0  0  0  0  0  0  0  0
   13.8905    0.6454   13.1688 O   0  0  0  0  0  0  0  0  0  0  0  0
   14.6748    1.8148   12.8216 C   0  0  0  0  0  0  0  0  0  0  0  0
   14.2544    2.1305   11.3809 C   0  0  0  0  0  0  0  0  0  0  0  0
   16.1661    1.4689   12.8425 C   0  0  0  0  0  0  0  0  0  0  0  0
   14.3662    3.0342   13.6954 C   0  0  0  0  0  0  0  0  0  0  0  0
   13.1001   -3.8851   16.9338 C   0  0  0  0  0  0  0  0  0  0  0  0
   14.4458   -4.3622   17.3508 C   0  0  0  0  0  0  0  0  0  0  0  0
   14.6597   -5.2953   18.1056 O   0  0  0  0  0  0  0  0  0  0  0  0
  1  2  1  0
  2  3  1  0
  3  4  1  0
  4  5  1  0
  3  6  1  0
  6  7  1  0
  7  8  2  0
  8  9  1  0
  9 10  1  6
  9 11  1  0
 11 12  1  0
 12 13  2  0
 12 14  1  0
 14 15  1  0
 15 16  1  0
 15 17  1  0
 15 18  1  0
  8 19  1  0
 19 20  1  0
 20 21  2  0
 20  6  1  0
M  END
>  <smiles>  (59) 
C80338-P98

>  <fragmenstein_error>  (59) 


>  <ref_pdb>  (59) 
99

>  <HIPPO Compound ID>  (59) 
30056

>  <fragmenstein_runtime>  (59) 
33.382501

>  <Energy>  (59) 
-4.849253

>  <fragmenstein_outcome>  (59) 
acceptable

>  <tags>  (59) 
{'fragmenstein_placed', 'openbind_d68ev3c_c1_knitwork_impure'}

>  <HIPPO Pose ID>  (59) 
53265

>  <inchikey>  (59) 
HMVFDBKGXTZIQO-UHFFFAOYSA-N

>  <alias>  (59) 
CCC(CC)N1N=C([C@H](C)NC(=O)OC(C)(C)C)CC1=O

>  <scratch_subdir>  (59) 
/opt/xchem-fragalysis-2/maxwin/BulkDock/SCRATCH/511022/C80338-P98

>  <fragmenstein_mode>  (59) 
expansion

$$$$
CC(C)CN1N=C([C@H](C)NC(=O)OC(C)(C)C)CC1=O
     RDKit          3D

 20 20  0  0  0  0  0  0  0  0999 V2000
   17.6851   -3.8803   14.8157 C   0  0  0  0  0  0  0  0  0  0  0  0
   17.4813   -4.4880   16.2046 C   0  0  0  0  0  0  0  0  0  0  0  0
   18.8384   -4.8542   16.8079 C   0  0  0  0  0  0  0  0  0  0  0  0
   16.7370   -3.5136   17.1253 C   0  0  0  0  0  0  0  0  0  0  0  0
   15.3183   -3.4789   16.8587 N   0  0  0  0  0  0  0  0  0  0  0  0
   14.7638   -2.5283   16.0369 N   0  0  0  0  0  0  0  0  0  0  0  0
   13.4818   -2.7448   16.0526 C   0  0  0  0  0  0  0  0  0  0  0  0
   12.4506   -1.8885   15.3541 C   0  0  2  0  0  0  0  0  0  0  0  0
   11.3401   -2.7244   14.7469 C   0  0  0  0  0  0  0  0  0  0  0  0
   13.0449   -1.0584   14.3377 N   0  0  0  0  0  0  0  0  0  0  0  0
   13.8051    0.2459   14.4519 C   0  0  0  0  0  0  0  0  0  0  0  0
   14.1487    0.8351   15.3862 O   0  0  0  0  0  0  0  0  0  0  0  0
   14.0020    0.6191   13.1627 O   0  0  0  0  0  0  0  0  0  0  0  0
   14.7365    1.8160   12.8010 C   0  0  0  0  0  0  0  0  0  0  0  0
   14.3585    3.0510   13.6248 C   0  0  0  0  0  0  0  0  0  0  0  0
   16.2381    1.5319   12.8730 C   0  0  0  0  0  0  0  0  0  0  0  0
   14.3400    2.0678   11.3411 C   0  0  0  0  0  0  0  0  0  0  0  0
   13.0825   -3.8838   16.9437 C   0  0  0  0  0  0  0  0  0  0  0  0
   14.4076   -4.3764   17.3997 C   0  0  0  0  0  0  0  0  0  0  0  0
   14.6087   -5.3579   18.0935 O   0  0  0  0  0  0  0  0  0  0  0  0
  1  2  1  0
  2  3  1  0
  2  4  1  0
  4  5  1  0
  5  6  1  0
  6  7  2  0
  7  8  1  0
  8  9  1  6
  8 10  1  0
 10 11  1  0
 11 12  2  0
 11 13  1  0
 13 14  1  0
 14 15  1  0
 14 16  1  0
 14 17  1  0
  7 18  1  0
 18 19  1  0
 19 20  2  0
 19  5  1  0
M  END
>  <smiles>  (60) 
C80344-P98

>  <fragmenstein_error>  (60) 


>  <ref_pdb>  (60) 
99

>  <HIPPO Compound ID>  (60) 
22807

>  <fragmenstein_runtime>  (60) 
17.034774

>  <Energy>  (60) 
-4.062613

>  <fragmenstein_outcome>  (60) 
acceptable

>  <tags>  (60) 
{'fragmenstein_placed', 'openbind_d68ev3c_c1_knitwork_impure'}

>  <HIPPO Pose ID>  (60) 
53267

>  <inchikey>  (60) 
YDILJCHOARNOGJ-UHFFFAOYSA-N

>  <alias>  (60) 
CC(C)CN1N=C([C@H](C)NC(=O)OC(C)(C)C)CC1=O

>  <scratch_subdir>  (60) 
/opt/xchem-fragalysis-2/maxwin/BulkDock/SCRATCH/511022/C80344-P98

>  <fragmenstein_mode>  (60) 
expansion

$$$$
COCC(COC)N1N=C([C@H](C)NC(=O)OC(C)(C)C)CC1=O
     RDKit          3D

 23 23  0  0  0  0  0  0  0  0999 V2000
   17.8131   -6.7420   15.2142 C   0  0  0  0  0  0  0  0  0  0  0  0
   16.9691   -5.9559   16.0450 O   0  0  0  0  0  0  0  0  0  0  0  0
   17.4525   -4.6100   16.1549 C   0  0  0  0  0  0  0  0  0  0  0  0
   16.7154   -3.8586   17.2726 C   0  0  0  0  0  0  0  0  0  0  0  0
   17.4233   -2.5318   17.6011 C   0  0  0  0  0  0  0  0  0  0  0  0
   18.7669   -2.7105   18.0647 O   0  0  0  0  0  0  0  0  0  0  0  0
   18.8365   -3.0811   19.4366 C   0  0  0  0  0  0  0  0  0  0  0  0
   15.3128   -3.6400   16.9448 N   0  0  0  0  0  0  0  0  0  0  0  0
   14.9235   -2.6338   16.1011 N   0  0  0  0  0  0  0  0  0  0  0  0
   13.6238   -2.6850   16.0550 C   0  0  0  0  0  0  0  0  0  0  0  0
   12.7842   -1.7023   15.2860 C   0  0  2  0  0  0  0  0  0  0  0  0
   11.8840   -2.3772   14.2728 C   0  0  0  0  0  0  0  0  0  0  0  0
   13.7022   -0.8108   14.6249 N   0  0  0  0  0  0  0  0  0  0  0  0
   13.4996    0.5837   14.0854 C   0  0  0  0  0  0  0  0  0  0  0  0
   12.5836    1.2857   14.1462 O   0  0  0  0  0  0  0  0  0  0  0  0
   14.6670    0.8511   13.4501 O   0  0  0  0  0  0  0  0  0  0  0  0
   14.8620    2.0930   12.7355 C   0  0  0  0  0  0  0  0  0  0  0  0
   16.2736    1.9766   12.1405 C   0  0  0  0  0  0  0  0  0  0  0  0
   13.8540    2.2328   11.5917 C   0  0  0  0  0  0  0  0  0  0  0  0
   14.8219    3.2847   13.6930 C   0  0  0  0  0  0  0  0  0  0  0  0
   13.0325   -3.7759   16.8863 C   0  0  0  0  0  0  0  0  0  0  0  0
   14.2670   -4.4173   17.4272 C   0  0  0  0  0  0  0  0  0  0  0  0
   14.3142   -5.3923   18.1551 O   0  0  0  0  0  0  0  0  0  0  0  0
  1  2  1  0
  2  3  1  0
  3  4  1  0
  4  5  1  0
  5  6  1  0
  6  7  1  0
  4  8  1  0
  8  9  1  0
  9 10  2  0
 10 11  1  0
 11 12  1  6
 11 13  1  0
 13 14  1  0
 14 15  2  0
 14 16  1  0
 16 17  1  0
 17 18  1  0
 17 19  1  0
 17 20  1  0
 10 21  1  0
 21 22  1  0
 22 23  2  0
 22  8  1  0
M  END
>  <smiles>  (61) 
C80346-P98

>  <fragmenstein_error>  (61) 


>  <ref_pdb>  (61) 
99

>  <HIPPO Compound ID>  (61) 
60777

>  <fragmenstein_runtime>  (61) 
42.304228

>  <Energy>  (61) 
26.939732

>  <fragmenstein_outcome>  (61) 
acceptable

>  <tags>  (61) 
{'fragmenstein_placed', 'openbind_d68ev3c_c1_knitwork_impure'}

>  <HIPPO Pose ID>  (61) 
53268

>  <inchikey>  (61) 
SEJYXQRAUAQKOO-UHFFFAOYSA-N

>  <alias>  (61) 
COCC(COC)N1N=C([C@H](C)NC(=O)OC(C)(C)C)CC1=O

>  <scratch_subdir>  (61) 
/opt/xchem-fragalysis-2/maxwin/BulkDock/SCRATCH/511022/C80346-P98

>  <fragmenstein_mode>  (61) 
expansion

$$$$
C[C@H](NC(=O)OC(C)(C)C)C1=NN(c2ccc(Cl)nc2)C(=O)C1
     RDKit          3D

 23 24  0  0  0  0  0  0  0  0999 V2000
   11.2601   -2.7459   14.7749 C   0  0  0  0  0  0  0  0  0  0  0  0
   12.3607   -1.8859   15.3678 C   0  0  2  0  0  0  0  0  0  0  0  0
   12.8893   -1.0110   14.3510 N   0  0  0  0  0  0  0  0  0  0  0  0
   13.7955    0.1971   14.4651 C   0  0  0  0  0  0  0  0  0  0  0  0
   14.3322    0.6487   15.3852 O   0  0  0  0  0  0  0  0  0  0  0  0
   13.8451    0.6846   13.2004 O   0  0  0  0  0  0  0  0  0  0  0  0
   14.6670    1.8251   12.8444 C   0  0  0  0  0  0  0  0  0  0  0  0
   14.2230    2.1721   11.4178 C   0  0  0  0  0  0  0  0  0  0  0  0
   16.1455    1.4273   12.8233 C   0  0  0  0  0  0  0  0  0  0  0  0
   14.4204    3.0418   13.7409 C   0  0  0  0  0  0  0  0  0  0  0  0
   13.4381   -2.7575   15.9720 C   0  0  0  0  0  0  0  0  0  0  0  0
   14.7017   -2.6871   15.6843 N   0  0  0  0  0  0  0  0  0  0  0  0
   15.3332   -3.6433   16.4473 N   0  0  0  0  0  0  0  0  0  0  0  0
   16.7238   -3.8134   16.2840 C   0  0  0  0  0  0  0  0  0  0  0  0
   17.4496   -4.7835   16.9781 C   0  0  0  0  0  0  0  0  0  0  0  0
   18.8233   -4.9191   16.7638 C   0  0  0  0  0  0  0  0  0  0  0  0
   19.4298   -4.0727   15.8538 C   0  0  0  0  0  0  0  0  0  0  0  0
   21.1096   -4.1835   15.5304 Cl  0  0  0  0  0  0  0  0  0  0  0  0
   18.7827   -3.1209   15.1579 N   0  0  0  0  0  0  0  0  0  0  0  0
   17.4482   -3.0157   15.3926 C   0  0  0  0  0  0  0  0  0  0  0  0
   14.4656   -4.3856   17.2550 C   0  0  0  0  0  0  0  0  0  0  0  0
   14.6691   -5.3353   17.9940 O   0  0  0  0  0  0  0  0  0  0  0  0
   13.1231   -3.7844   17.0148 C   0  0  0  0  0  0  0  0  0  0  0  0
  2  1  1  6
  2  3  1  0
  3  4  1  0
  4  5  2  0
  4  6  1  0
  6  7  1  0
  7  8  1  0
  7  9  1  0
  7 10  1  0
  2 11  1  0
 11 12  2  0
 12 13  1  0
 13 14  1  0
 14 15  2  0
 15 16  1  0
 16 17  2  0
 17 18  1  0
 17 19  1  0
 19 20  2  0
 13 21  1  0
 21 22  2  0
 21 23  1  0
 23 11  1  0
 20 14  1  0
M  END
>  <smiles>  (62) 
C80347-P98

>  <fragmenstein_error>  (62) 


>  <ref_pdb>  (62) 
99

>  <HIPPO Compound ID>  (62) 
56757

>  <fragmenstein_runtime>  (62) 
27.078952

>  <Energy>  (62) 
20.329374

>  <fragmenstein_outcome>  (62) 
acceptable

>  <tags>  (62) 
{'fragmenstein_placed', 'openbind_d68ev3c_c1_knitwork_impure'}

>  <HIPPO Pose ID>  (62) 
53269

>  <inchikey>  (62) 
HNKCGTWDDZCSAS-UHFFFAOYSA-N

>  <alias>  (62) 
C[C@H](NC(=O)OC(C)(C)C)C1=NN(c2ccc(Cl)nc2)C(=O)C1

>  <scratch_subdir>  (62) 
/opt/xchem-fragalysis-2/maxwin/BulkDock/SCRATCH/511022/C80347-P98

>  <fragmenstein_mode>  (62) 
expansion

$$$$
C[C@H](C(=O)NC[C@H](C)c1nc2ccccc2o1)c1nccs1
     RDKit          3D

 22 24  0  0  0  0  0  0  0  0999 V2000
   -8.9077  -23.0963    3.7505 C   0  0  0  0  0  0  0  0  0  0  0  0
   -9.8889  -23.5738    4.8196 C   0  0  1  0  0  0  0  0  0  0  0  0
   -9.9762  -25.1137    4.8170 C   0  0  0  0  0  0  0  0  0  0  0  0
  -10.7715  -25.6565    5.8962 N   0  0  0  0  0  0  0  0  0  0  0  0
  -12.1235  -26.4240    5.8669 C   0  0  0  0  0  0  0  0  0  0  0  0
  -12.8379  -26.6666    4.9726 O   0  0  0  0  0  0  0  0  0  0  0  0
  -12.4118  -26.9873    7.2831 C   0  0  1  0  0  0  0  0  0  0  0  0
  -11.4133  -28.1015    7.5919 C   0  0  0  0  0  0  0  0  0  0  0  0
  -12.3960  -25.9230    8.3447 C   0  0  0  0  0  0  0  0  0  0  0  0
  -12.2843  -24.6308    8.1290 N   0  0  0  0  0  0  0  0  0  0  0  0
  -12.1114  -23.9715    9.3206 C   0  0  0  0  0  0  0  0  0  0  0  0
  -12.1456  -24.7520   10.4528 C   0  0  0  0  0  0  0  0  0  0  0  0
  -12.4552  -26.3690   10.0247 S   0  0  0  0  0  0  0  0  0  0  0  0
   -9.5229  -23.0005    6.1524 C   0  0  0  0  0  0  0  0  0  0  0  0
   -9.6794  -21.7570    6.5689 N   0  0  0  0  0  0  0  0  0  0  0  0
   -9.3176  -21.8146    7.8883 C   0  0  0  0  0  0  0  0  0  0  0  0
   -9.2680  -20.8231    8.8674 C   0  0  0  0  0  0  0  0  0  0  0  0
   -8.8141  -21.1837   10.1459 C   0  0  0  0  0  0  0  0  0  0  0  0
   -8.4659  -22.5038   10.4508 C   0  0  0  0  0  0  0  0  0  0  0  0
   -8.5177  -23.5091    9.4816 C   0  0  0  0  0  0  0  0  0  0  0  0
   -8.9292  -23.1006    8.2205 C   0  0  0  0  0  0  0  0  0  0  0  0
   -9.0153  -23.8607    7.0953 O   0  0  0  0  0  0  0  0  0  0  0  0
  2  1  1  6
  2  3  1  0
  3  4  1  0
  4  5  1  0
  5  6  2  0
  5  7  1  0
  7  8  1  1
  7  9  1  0
  9 10  2  0
 10 11  1  0
 11 12  2  0
 12 13  1  0
  2 14  1  0
 14 15  2  0
 15 16  1  0
 16 17  2  0
 17 18  1  0
 18 19  2  0
 19 20  1  0
 20 21  2  0
 21 22  1  0
 13  9  1  0
 22 14  1  0
 21 16  1  0
M  END
>  <smiles>  (63) 
C52793-P2

>  <fragmenstein_error>  (63) 


>  <ref_pdb>  (63) 
99

>  <HIPPO Compound ID>  (63) 
45106

>  <fragmenstein_runtime>  (63) 
1.803506

>  <Energy>  (63) 
50.528701

>  <fragmenstein_outcome>  (63) 
acceptable

>  <tags>  (63) 
{'fragmenstein_placed', 'openbind_d68ev3c_c1_knitwork_impure'}

>  <HIPPO Pose ID>  (63) 
53301

>  <inchikey>  (63) 
MZSOXVZAYDDKJP-UHFFFAOYSA-N

>  <alias>  (63) 
C[C@H](C(=O)NC[C@H](C)c1nc2ccccc2o1)c1nccs1

>  <scratch_subdir>  (63) 
/opt/xchem-fragalysis-2/maxwin/BulkDock/SCRATCH/511022/C52793-P2

>  <fragmenstein_mode>  (63) 
expansion

$$$$
c1cc2cc(-c3cnoc3)ccc2[nH]1
     RDKit          3D

 14 16  0  0  0  0  0  0  0  0999 V2000
    2.3708   -5.2035   27.4661 C   0  0  0  0  0  0  0  0  0  0  0  0
    1.9370   -6.2567   28.2371 C   0  0  0  0  0  0  0  0  0  0  0  0
    1.1497   -5.7404   29.3011 C   0  0  0  0  0  0  0  0  0  0  0  0
    0.4904   -6.3008   30.4177 C   0  0  0  0  0  0  0  0  0  0  0  0
   -0.0280   -5.4510   31.4111 C   0  0  0  0  0  0  0  0  0  0  0  0
   -0.3633   -5.9518   32.7346 C   0  0  0  0  0  0  0  0  0  0  0  0
   -0.4470   -5.2600   33.9685 C   0  0  0  0  0  0  0  0  0  0  0  0
   -0.5814   -6.0819   35.0087 N   0  0  0  0  0  0  0  0  0  0  0  0
   -0.6459   -7.3478   34.4610 O   0  0  0  0  0  0  0  0  0  0  0  0
   -0.5306   -7.2629   33.1112 C   0  0  0  0  0  0  0  0  0  0  0  0
   -0.0720   -4.0713   31.1738 C   0  0  0  0  0  0  0  0  0  0  0  0
    0.4768   -3.5033   30.0217 C   0  0  0  0  0  0  0  0  0  0  0  0
    1.1285   -4.3588   29.1365 C   0  0  0  0  0  0  0  0  0  0  0  0
    1.8576   -4.0584   28.0099 N   0  0  0  0  0  0  0  0  0  0  0  0
  1  2  2  0
  2  3  1  0
  3  4  2  0
  4  5  1  0
  5  6  1  0
  6  7  1  0
  7  8  2  0
  8  9  1  0
  9 10  1  0
  5 11  2  0
 11 12  1  0
 12 13  2  0
 13 14  1  0
 14  1  1  0
 13  3  1  0
 10  6  2  0
M  END
>  <smiles>  (64) 
C37985-P40

>  <fragmenstein_error>  (64) 


>  <ref_pdb>  (64) 
55

>  <HIPPO Compound ID>  (64) 
47477

>  <fragmenstein_runtime>  (64) 
1.104957

>  <Energy>  (64) 
22.680869

>  <fragmenstein_outcome>  (64) 
acceptable

>  <tags>  (64) 
{'fragmenstein_placed', 'openbind_d68ev3c_c1_knitwork_impure'}

>  <HIPPO Pose ID>  (64) 
54073

>  <inchikey>  (64) 
JRFBSFPYJLBLKE-UHFFFAOYSA-N

>  <alias>  (64) 
c1cc2cc(-c3cnoc3)ccc2[nH]1

>  <scratch_subdir>  (64) 
/opt/xchem-fragalysis-2/maxwin/BulkDock/SCRATCH/511023/C37985-P40

>  <fragmenstein_mode>  (64) 
expansion

$$$$
Cc1conc1C(=O)NCC[C@@H](C)NC(=O)c1cc[nH]n1
     RDKit          3D

 21 22  0  0  0  0  0  0  0  0999 V2000
   -1.5489   -2.1314   28.9582 C   0  0  0  0  0  0  0  0  0  0  0  0
   -1.2907   -1.0989   29.9758 C   0  0  0  0  0  0  0  0  0  0  0  0
   -0.4100   -0.0531   29.8571 C   0  0  0  0  0  0  0  0  0  0  0  0
   -0.4321    0.6918   30.9814 O   0  0  0  0  0  0  0  0  0  0  0  0
   -1.3526    0.1675   31.8665 N   0  0  0  0  0  0  0  0  0  0  0  0
   -1.8820   -0.9148   31.2637 C   0  0  0  0  0  0  0  0  0  0  0  0
   -2.9079   -1.7312   31.9603 C   0  0  0  0  0  0  0  0  0  0  0  0
   -3.1372   -2.8206   31.6094 O   0  0  0  0  0  0  0  0  0  0  0  0
   -3.4694   -0.9243   33.1521 N   0  0  0  0  0  0  0  0  0  0  0  0
   -4.3565   -1.3204   34.2141 C   0  0  0  0  0  0  0  0  0  0  0  0
   -5.7534   -0.6780   34.2394 C   0  0  0  0  0  0  0  0  0  0  0  0
   -6.3080   -0.7654   35.6790 C   0  0  1  0  0  0  0  0  0  0  0  0
   -5.8318    0.4186   36.4996 C   0  0  0  0  0  0  0  0  0  0  0  0
   -7.7374   -0.9526   35.8447 N   0  0  0  0  0  0  0  0  0  0  0  0
   -8.8288    0.0284   36.3306 C   0  0  0  0  0  0  0  0  0  0  0  0
   -8.7612    1.1625   36.5998 O   0  0  0  0  0  0  0  0  0  0  0  0
  -10.0998   -0.7141   36.5428 C   0  0  0  0  0  0  0  0  0  0  0  0
  -11.3334   -0.1681   37.0014 C   0  0  0  0  0  0  0  0  0  0  0  0
  -12.1812   -1.2381   37.1351 C   0  0  0  0  0  0  0  0  0  0  0  0
  -11.4670   -2.3334   36.7504 N   0  0  0  0  0  0  0  0  0  0  0  0
  -10.1927   -2.0563   36.3999 N   0  0  0  0  0  0  0  0  0  0  0  0
  1  2  1  0
  2  3  2  0
  3  4  1  0
  4  5  1  0
  5  6  2  0
  6  7  1  0
  7  8  2  0
  7  9  1  0
  9 10  1  0
 10 11  1  0
 11 12  1  0
 12 13  1  1
 12 14  1  0
 14 15  1  0
 15 16  2  0
 15 17  1  0
 17 18  1  0
 18 19  2  0
 19 20  1  0
 20 21  1  0
  6  2  1  0
 21 17  2  0
M  END
>  <smiles>  (65) 
C35576-P59

>  <fragmenstein_error>  (65) 


>  <ref_pdb>  (65) 
55

>  <HIPPO Compound ID>  (65) 
58499

>  <fragmenstein_runtime>  (65) 
2.503311

>  <Energy>  (65) 
63.194948

>  <fragmenstein_outcome>  (65) 
acceptable

>  <tags>  (65) 
{'fragmenstein_placed', 'openbind_d68ev3c_c1_knitwork_impure'}

>  <HIPPO Pose ID>  (65) 
54731

>  <inchikey>  (65) 
FHBUSQCSXUMBCH-UHFFFAOYSA-N

>  <alias>  (65) 
Cc1conc1C(=O)NCC[C@@H](C)NC(=O)c1cc[nH]n1

>  <scratch_subdir>  (65) 
/opt/xchem-fragalysis-2/maxwin/BulkDock/SCRATCH/511023/C35576-P59

>  <fragmenstein_mode>  (65) 
expansion

$$$$
CCN1N=C(C(=O)N[C@H](C)[C@H](O)C2CCCCC2)CC1=O
     RDKit          3D

 21 22  0  0  0  0  0  0  0  0999 V2000
   17.2669   -4.5421   16.0832 C   0  0  0  0  0  0  0  0  0  0  0  0
   16.6040   -3.4235   16.8641 C   0  0  0  0  0  0  0  0  0  0  0  0
   15.1680   -3.4341   16.7098 N   0  0  0  0  0  0  0  0  0  0  0  0
   14.5120   -2.4814   15.9569 N   0  0  0  0  0  0  0  0  0  0  0  0
   13.2519   -2.7768   16.0831 C   0  0  0  0  0  0  0  0  0  0  0  0
   12.1356   -1.9821   15.4578 C   0  0  0  0  0  0  0  0  0  0  0  0
   11.0355   -2.3320   15.5803 O   0  0  0  0  0  0  0  0  0  0  0  0
   12.7108   -0.7367   14.7805 N   0  0  0  0  0  0  0  0  0  0  0  0
   12.0401    0.4113   14.1816 C   0  0  2  0  0  0  0  0  0  0  0  0
   13.0347    1.1826   13.3316 C   0  0  0  0  0  0  0  0  0  0  0  0
   11.3100    1.2014   15.3186 C   0  0  2  0  0  0  0  0  0  0  0  0
   10.2357    0.3752   15.8284 O   0  0  0  0  0  0  0  0  0  0  0  0
   10.7253    2.5961   14.9565 C   0  0  0  0  0  0  0  0  0  0  0  0
   11.7974    3.7069   14.9863 C   0  0  0  0  0  0  0  0  0  0  0  0
   11.2185    5.0809   14.6513 C   0  0  0  0  0  0  0  0  0  0  0  0
   10.0756    5.4534   15.5852 C   0  0  0  0  0  0  0  0  0  0  0  0
    9.0006    4.3766   15.5915 C   0  0  0  0  0  0  0  0  0  0  0  0
    9.5816    3.0030   15.9196 C   0  0  0  0  0  0  0  0  0  0  0  0
   12.9516   -3.9392   16.9555 C   0  0  0  0  0  0  0  0  0  0  0  0
   14.3294   -4.3737   17.3107 C   0  0  0  0  0  0  0  0  0  0  0  0
   14.6237   -5.3400   17.9925 O   0  0  0  0  0  0  0  0  0  0  0  0
  1  2  1  0
  2  3  1  0
  3  4  1  0
  4  5  2  0
  5  6  1  0
  6  7  2  0
  6  8  1  0
  8  9  1  0
  9 10  1  1
  9 11  1  0
 11 12  1  6
 11 13  1  0
 13 14  1  0
 14 15  1  0
 15 16  1  0
 16 17  1  0
 17 18  1  0
  5 19  1  0
 19 20  1  0
 20 21  2  0
 20  3  1  0
 18 13  1  0
M  END
>  <smiles>  (66) 
C51530-P98

>  <fragmenstein_error>  (66) 


>  <ref_pdb>  (66) 
55

>  <HIPPO Compound ID>  (66) 
59257

>  <fragmenstein_runtime>  (66) 
36.903979

>  <Energy>  (66) 
61.846141

>  <fragmenstein_outcome>  (66) 
acceptable

>  <tags>  (66) 
{'fragmenstein_placed', 'openbind_d68ev3c_c1_knitwork_impure'}

>  <HIPPO Pose ID>  (66) 
54741

>  <inchikey>  (66) 
UPVPFNWKHHCIKS-UHFFFAOYSA-N

>  <alias>  (66) 
CCN1N=C(C(=O)N[C@H](C)[C@H](O)C2CCCCC2)CC1=O

>  <scratch_subdir>  (66) 
/opt/xchem-fragalysis-2/maxwin/BulkDock/SCRATCH/511023/C51530-P98

>  <fragmenstein_mode>  (66) 
expansion

$$$$
O=C(CCc1ccc2c(c1)OCO2)Nc1cccnc1N1CCCCC1
     RDKit          3D

 26 29  0  0  0  0  0  0  0  0999 V2000
   -1.9508   -3.6218   31.6596 O   0  0  0  0  0  0  0  0  0  0  0  0
   -1.3877   -2.7566   31.1036 C   0  0  0  0  0  0  0  0  0  0  0  0
   -1.1044   -2.8902   29.6034 C   0  0  0  0  0  0  0  0  0  0  0  0
    0.0645   -2.1641   28.9440 C   0  0  0  0  0  0  0  0  0  0  0  0
   -0.2549   -0.7753   28.4317 C   0  0  0  0  0  0  0  0  0  0  0  0
    0.6725    0.2723   28.6246 C   0  0  0  0  0  0  0  0  0  0  0  0
    0.4166    1.5636   28.1502 C   0  0  0  0  0  0  0  0  0  0  0  0
   -0.7653    1.7798   27.4784 C   0  0  0  0  0  0  0  0  0  0  0  0
   -1.6640    0.7677   27.2616 C   0  0  0  0  0  0  0  0  0  0  0  0
   -1.4327   -0.5152   27.7096 C   0  0  0  0  0  0  0  0  0  0  0  0
   -2.7506    1.1818   26.5582 O   0  0  0  0  0  0  0  0  0  0  0  0
   -2.4823    2.5929   26.4462 C   0  0  0  0  0  0  0  0  0  0  0  0
   -1.1744    2.9595   26.9415 O   0  0  0  0  0  0  0  0  0  0  0  0
   -0.8903   -1.3793   31.6259 N   0  0  0  0  0  0  0  0  0  0  0  0
   -1.0603   -0.7663   32.8660 C   0  0  0  0  0  0  0  0  0  0  0  0
   -1.9481   -1.2764   33.8083 C   0  0  0  0  0  0  0  0  0  0  0  0
   -2.1469   -0.5846   34.9963 C   0  0  0  0  0  0  0  0  0  0  0  0
   -1.4489    0.5933   35.1920 C   0  0  0  0  0  0  0  0  0  0  0  0
   -0.5658    1.1066   34.3065 N   0  0  0  0  0  0  0  0  0  0  0  0
   -0.3508    0.4221   33.1582 C   0  0  0  0  0  0  0  0  0  0  0  0
    0.6678    0.8633   32.2610 N   0  0  0  0  0  0  0  0  0  0  0  0
    1.8831    0.0518   32.5043 C   0  0  0  0  0  0  0  0  0  0  0  0
    3.1237    0.7577   31.9624 C   0  0  0  0  0  0  0  0  0  0  0  0
    3.3616    2.0888   32.6736 C   0  0  0  0  0  0  0  0  0  0  0  0
    2.0638    2.7230   33.1724 C   0  0  0  0  0  0  0  0  0  0  0  0
    0.8755    2.3273   32.2999 C   0  0  0  0  0  0  0  0  0  0  0  0
  1  2  2  0
  2  3  1  0
  3  4  1  0
  4  5  1  0
  5  6  2  0
  6  7  1  0
  7  8  2  0
  8  9  1  0
  9 10  2  0
  9 11  1  0
 11 12  1  0
 12 13  1  0
  2 14  1  0
 14 15  1  0
 15 16  2  0
 16 17  1  0
 17 18  2  0
 18 19  1  0
 19 20  2  0
 20 21  1  0
 21 22  1  0
 22 23  1  0
 23 24  1  0
 24 25  1  0
 25 26  1  0
 10  5  1  0
 20 15  1  0
 26 21  1  0
 13  8  1  0
M  END
>  <smiles>  (67) 
C43107-P13

>  <fragmenstein_error>  (67) 


>  <ref_pdb>  (67) 
55

>  <HIPPO Compound ID>  (67) 
16736

>  <fragmenstein_runtime>  (67) 
11.855811

>  <Energy>  (67) 
39.976511

>  <fragmenstein_outcome>  (67) 
acceptable

>  <tags>  (67) 
{'fragmenstein_placed', 'openbind_d68ev3c_c1_knitwork_impure'}

>  <HIPPO Pose ID>  (67) 
55796

>  <inchikey>  (67) 
PLVVZPFDHLNBFC-UHFFFAOYSA-N

>  <alias>  (67) 
O=C(CCc1ccc2c(c1)OCO2)Nc1cccnc1N1CCCCC1

>  <scratch_subdir>  (67) 
/opt/xchem-fragalysis-2/maxwin/BulkDock/SCRATCH/511023/C43107-P13

>  <fragmenstein_mode>  (67) 
expansion

$$$$
C=C(COCc1ccccc1)[C@@H](C[C@@H]1OCC[C@@H]1C)NC
     RDKit          3D

 21 22  0  0  0  0  0  0  0  0999 V2000
   15.9641    1.5149   16.0203 C   0  0  0  0  0  0  0  0  0  0  0  0
   15.6187    1.4407   14.7212 C   0  0  0  0  0  0  0  0  0  0  0  0
   16.2530    2.3882   13.7212 C   0  0  0  0  0  0  0  0  0  0  0  0
   15.2825    3.0813   12.9464 O   0  0  0  0  0  0  0  0  0  0  0  0
   14.8718    4.3172   13.5254 C   0  0  0  0  0  0  0  0  0  0  0  0
   15.8423    5.4328   13.2184 C   0  0  0  0  0  0  0  0  0  0  0  0
   16.1907    6.3642   14.2067 C   0  0  0  0  0  0  0  0  0  0  0  0
   17.0708    7.4087   13.9166 C   0  0  0  0  0  0  0  0  0  0  0  0
   17.6045    7.5376   12.6356 C   0  0  0  0  0  0  0  0  0  0  0  0
   17.2567    6.6249   11.6419 C   0  0  0  0  0  0  0  0  0  0  0  0
   16.3769    5.5808   11.9303 C   0  0  0  0  0  0  0  0  0  0  0  0
   14.7599    0.3313   14.1167 C   0  0  1  0  0  0  0  0  0  0  0  0
   14.8779   -1.0622   14.7936 C   0  0  0  0  0  0  0  0  0  0  0  0
   13.7857   -1.5283   15.7492 C   0  0  2  0  0  0  0  0  0  0  0  0
   14.2990   -2.6679   16.4854 O   0  0  0  0  0  0  0  0  0  0  0  0
   13.2774   -3.6686   16.5950 C   0  0  0  0  0  0  0  0  0  0  0  0
   11.9937   -3.0035   16.1678 C   0  0  0  0  0  0  0  0  0  0  0  0
   12.4482   -1.9804   15.1485 C   0  0  2  0  0  0  0  0  0  0  0  0
   12.5362   -2.6179   13.7720 C   0  0  0  0  0  0  0  0  0  0  0  0
   13.4497    0.7687   13.6370 N   0  0  0  0  0  0  0  0  0  0  0  0
   12.6066    1.4954   14.5569 C   0  0  0  0  0  0  0  0  0  0  0  0
  1  2  2  0
  2  3  1  0
  3  4  1  0
  4  5  1  0
  5  6  1  0
  6  7  2  0
  7  8  1  0
  8  9  2  0
  9 10  1  0
 10 11  2  0
  2 12  1  0
 12 13  1  1
 14 13  1  6
 14 15  1  0
 15 16  1  0
 16 17  1  0
 17 18  1  0
 18 19  1  6
 12 20  1  0
 20 21  1  0
 11  6  1  0
 18 14  1  0
M  END
>  <smiles>  (68) 
C54917-P28

>  <fragmenstein_error>  (68) 


>  <ref_pdb>  (68) 
55

>  <HIPPO Compound ID>  (68) 
30273

>  <fragmenstein_runtime>  (68) 
5.690648

>  <Energy>  (68) 
54.398482

>  <fragmenstein_outcome>  (68) 
acceptable

>  <tags>  (68) 
{'fragmenstein_placed', 'openbind_d68ev3c_c1_knitwork_impure'}

>  <HIPPO Pose ID>  (68) 
55808

>  <inchikey>  (68) 
HZSCMLUQIPFLRL-UHFFFAOYSA-N

>  <alias>  (68) 
C=C(COCc1ccccc1)[C@@H](C[C@@H]1OCC[C@@H]1C)NC

>  <scratch_subdir>  (68) 
/opt/xchem-fragalysis-2/maxwin/BulkDock/SCRATCH/511023/C54917-P28

>  <fragmenstein_mode>  (68) 
expansion

$$$$
c1c[nH]c(-c2ccsn2)n1
     RDKit          3D

 10 11  0  0  0  0  0  0  0  0999 V2000
  -10.1379  -27.4253   30.1578 C   0  0  0  0  0  0  0  0  0  0  0  0
   -9.3078  -27.6500   31.2235 C   0  0  0  0  0  0  0  0  0  0  0  0
   -9.4330  -26.5466   32.0227 N   0  0  0  0  0  0  0  0  0  0  0  0
  -10.3372  -25.7016   31.4282 C   0  0  0  0  0  0  0  0  0  0  0  0
  -10.8191  -24.3137   32.0192 C   0  0  0  0  0  0  0  0  0  0  0  0
  -10.3940  -23.7633   33.2728 C   0  0  0  0  0  0  0  0  0  0  0  0
  -11.0265  -22.5648   33.5328 C   0  0  0  0  0  0  0  0  0  0  0  0
  -12.0974  -22.2433   32.2472 S   0  0  0  0  0  0  0  0  0  0  0  0
  -11.6772  -23.5557   31.3327 N   0  0  0  0  0  0  0  0  0  0  0  0
  -10.7549  -26.2114   30.2822 N   0  0  0  0  0  0  0  0  0  0  0  0
  1  2  2  0
  2  3  1  0
  3  4  1  0
  4  5  1  0
  5  6  1  0
  6  7  2  0
  7  8  1  0
  8  9  1  0
  4 10  2  0
 10  1  1  0
  9  5  2  0
M  END
>  <smiles>  (69) 
C29408-P35

>  <fragmenstein_error>  (69) 


>  <ref_pdb>  (69) 
55

>  <HIPPO Compound ID>  (69) 
52888

>  <fragmenstein_runtime>  (69) 
1.055124

>  <Energy>  (69) 
16.910155

>  <fragmenstein_outcome>  (69) 
acceptable

>  <tags>  (69) 
{'fragmenstein_placed', 'openbind_d68ev3c_c1_knitwork_impure'}

>  <HIPPO Pose ID>  (69) 
56248

>  <inchikey>  (69) 
GHOZVLCUQHHXPO-UHFFFAOYSA-N

>  <alias>  (69) 
c1c[nH]c(-c2ccsn2)n1

>  <scratch_subdir>  (69) 
/opt/xchem-fragalysis-2/maxwin/BulkDock/SCRATCH/511023/C29408-P35

>  <fragmenstein_mode>  (69) 
expansion

$$$$
c1c[nH]c(-c2nccs2)n1
     RDKit          3D

 10 11  0  0  0  0  0  0  0  0999 V2000
  -10.3242  -27.5628   30.2266 C   0  0  0  0  0  0  0  0  0  0  0  0
   -9.3410  -27.7910   31.1531 C   0  0  0  0  0  0  0  0  0  0  0  0
   -9.3354  -26.6854   31.9580 N   0  0  0  0  0  0  0  0  0  0  0  0
  -10.3231  -25.8429   31.5127 C   0  0  0  0  0  0  0  0  0  0  0  0
  -10.6053  -24.5871   32.1438 C   0  0  0  0  0  0  0  0  0  0  0  0
   -9.9699  -24.1922   33.2310 N   0  0  0  0  0  0  0  0  0  0  0  0
  -10.4081  -22.9350   33.5984 C   0  0  0  0  0  0  0  0  0  0  0  0
  -11.3846  -22.3868   32.7978 C   0  0  0  0  0  0  0  0  0  0  0  0
  -11.7738  -23.4783   31.5352 S   0  0  0  0  0  0  0  0  0  0  0  0
  -10.9259  -26.3528   30.4536 N   0  0  0  0  0  0  0  0  0  0  0  0
  1  2  2  0
  2  3  1  0
  3  4  1  0
  4  5  1  0
  5  6  2  0
  6  7  1  0
  7  8  2  0
  8  9  1  0
  4 10  2  0
 10  1  1  0
  9  5  1  0
M  END
>  <smiles>  (70) 
C7777-P35

>  <fragmenstein_error>  (70) 


>  <ref_pdb>  (70) 
55

>  <HIPPO Compound ID>  (70) 
54502

>  <fragmenstein_runtime>  (70) 
1.039759

>  <Energy>  (70) 
19.799825

>  <fragmenstein_outcome>  (70) 
acceptable

>  <tags>  (70) 
{'fragmenstein_placed', 'openbind_d68ev3c_c1_knitwork_impure'}

>  <HIPPO Pose ID>  (70) 
56250

>  <inchikey>  (70) 
ZLMPNDQGPYVCLR-UHFFFAOYSA-N

>  <alias>  (70) 
c1c[nH]c(-c2nccs2)n1

>  <scratch_subdir>  (70) 
/opt/xchem-fragalysis-2/maxwin/BulkDock/SCRATCH/511023/C7777-P35

>  <fragmenstein_mode>  (70) 
expansion

$$$$
c1c[nH]c(-c2cocn2)n1
     RDKit          3D

 10 11  0  0  0  0  0  0  0  0999 V2000
  -10.2419  -27.7336   30.1625 C   0  0  0  0  0  0  0  0  0  0  0  0
   -9.2888  -27.9281   31.1280 C   0  0  0  0  0  0  0  0  0  0  0  0
   -9.3154  -26.8006   31.9010 N   0  0  0  0  0  0  0  0  0  0  0  0
  -10.2805  -25.9814   31.3853 C   0  0  0  0  0  0  0  0  0  0  0  0
  -10.6334  -24.6000   31.9634 C   0  0  0  0  0  0  0  0  0  0  0  0
  -11.5577  -23.7458   31.4169 C   0  0  0  0  0  0  0  0  0  0  0  0
  -11.5672  -22.6128   32.1720 O   0  0  0  0  0  0  0  0  0  0  0  0
  -10.6609  -22.8728   33.1580 C   0  0  0  0  0  0  0  0  0  0  0  0
  -10.0612  -24.0414   33.0790 N   0  0  0  0  0  0  0  0  0  0  0  0
  -10.8503  -26.5198   30.3253 N   0  0  0  0  0  0  0  0  0  0  0  0
  1  2  2  0
  2  3  1  0
  3  4  1  0
  4  5  1  0
  5  6  2  0
  6  7  1  0
  7  8  1  0
  8  9  2  0
  4 10  2  0
 10  1  1  0
  9  5  1  0
M  END
>  <smiles>  (71) 
C46399-P35

>  <fragmenstein_error>  (71) 


>  <ref_pdb>  (71) 
55

>  <HIPPO Compound ID>  (71) 
50489

>  <fragmenstein_runtime>  (71) 
1.107565

>  <Energy>  (71) 
8.86378

>  <fragmenstein_outcome>  (71) 
acceptable

>  <tags>  (71) 
{'fragmenstein_placed', 'openbind_d68ev3c_c1_knitwork_impure'}

>  <HIPPO Pose ID>  (71) 
56251

>  <inchikey>  (71) 
HLBBAIMXSOMJLL-UHFFFAOYSA-N

>  <alias>  (71) 
c1c[nH]c(-c2cocn2)n1

>  <scratch_subdir>  (71) 
/opt/xchem-fragalysis-2/maxwin/BulkDock/SCRATCH/511023/C46399-P35

>  <fragmenstein_mode>  (71) 
expansion

$$$$
c1c[nH]c(-c2ncco2)n1
     RDKit          3D

 10 11  0  0  0  0  0  0  0  0999 V2000
  -10.2889  -27.5047   30.1752 C   0  0  0  0  0  0  0  0  0  0  0  0
   -9.3501  -27.7967   31.1302 C   0  0  0  0  0  0  0  0  0  0  0  0
   -9.3297  -26.7127   31.9640 N   0  0  0  0  0  0  0  0  0  0  0  0
  -10.2662  -25.8216   31.5058 C   0  0  0  0  0  0  0  0  0  0  0  0
  -10.5317  -24.5758   32.1587 C   0  0  0  0  0  0  0  0  0  0  0  0
   -9.9734  -24.2285   33.3094 N   0  0  0  0  0  0  0  0  0  0  0  0
  -10.4752  -22.9803   33.5752 C   0  0  0  0  0  0  0  0  0  0  0  0
  -11.3329  -22.6042   32.5772 C   0  0  0  0  0  0  0  0  0  0  0  0
  -11.3707  -23.6032   31.6551 O   0  0  0  0  0  0  0  0  0  0  0  0
  -10.8477  -26.2754   30.4102 N   0  0  0  0  0  0  0  0  0  0  0  0
  1  2  2  0
  2  3  1  0
  3  4  1  0
  4  5  1  0
  5  6  2  0
  6  7  1  0
  7  8  2  0
  8  9  1  0
  4 10  2  0
 10  1  1  0
  9  5  1  0
M  END
>  <smiles>  (72) 
C46402-P35

>  <fragmenstein_error>  (72) 


>  <ref_pdb>  (72) 
55

>  <HIPPO Compound ID>  (72) 
51861

>  <fragmenstein_runtime>  (72) 
0.986155

>  <Energy>  (72) 
24.751481

>  <fragmenstein_outcome>  (72) 
acceptable

>  <tags>  (72) 
{'fragmenstein_placed', 'openbind_d68ev3c_c1_knitwork_impure'}

>  <HIPPO Pose ID>  (72) 
56252

>  <inchikey>  (72) 
CYKWDBWKKGRPJQ-UHFFFAOYSA-N

>  <alias>  (72) 
c1c[nH]c(-c2ncco2)n1

>  <scratch_subdir>  (72) 
/opt/xchem-fragalysis-2/maxwin/BulkDock/SCRATCH/511023/C46402-P35

>  <fragmenstein_mode>  (72) 
expansion

$$$$
c1c[nH]c(-c2cscn2)n1
     RDKit          3D

 10 11  0  0  0  0  0  0  0  0999 V2000
  -10.2348  -27.6410   30.1888 C   0  0  0  0  0  0  0  0  0  0  0  0
   -9.2909  -27.8297   31.1646 C   0  0  0  0  0  0  0  0  0  0  0  0
   -9.3425  -26.7077   31.9444 N   0  0  0  0  0  0  0  0  0  0  0  0
  -10.3166  -25.8988   31.4275 C   0  0  0  0  0  0  0  0  0  0  0  0
  -10.7102  -24.5212   32.0314 C   0  0  0  0  0  0  0  0  0  0  0  0
  -11.7058  -23.7416   31.4793 C   0  0  0  0  0  0  0  0  0  0  0  0
  -11.8814  -22.2998   32.3817 S   0  0  0  0  0  0  0  0  0  0  0  0
  -10.6316  -22.8354   33.4311 C   0  0  0  0  0  0  0  0  0  0  0  0
  -10.0815  -23.9969   33.1468 N   0  0  0  0  0  0  0  0  0  0  0  0
  -10.8632  -26.4367   30.3538 N   0  0  0  0  0  0  0  0  0  0  0  0
  1  2  2  0
  2  3  1  0
  3  4  1  0
  4  5  1  0
  5  6  2  0
  6  7  1  0
  7  8  1  0
  8  9  2  0
  4 10  2  0
 10  1  1  0
  9  5  1  0
M  END
>  <smiles>  (73) 
C8988-P35

>  <fragmenstein_error>  (73) 


>  <ref_pdb>  (73) 
55

>  <HIPPO Compound ID>  (73) 
47228

>  <fragmenstein_runtime>  (73) 
1.132107

>  <Energy>  (73) 
7.126229

>  <fragmenstein_outcome>  (73) 
acceptable

>  <tags>  (73) 
{'fragmenstein_placed', 'openbind_d68ev3c_c1_knitwork_impure'}

>  <HIPPO Pose ID>  (73) 
56254

>  <inchikey>  (73) 
MIPRSWGTMJTQTA-UHFFFAOYSA-N

>  <alias>  (73) 
c1c[nH]c(-c2cscn2)n1

>  <scratch_subdir>  (73) 
/opt/xchem-fragalysis-2/maxwin/BulkDock/SCRATCH/511023/C8988-P35

>  <fragmenstein_mode>  (73) 
expansion

$$$$
C=CCC(=O)[C@@H](O)c1ccncc1
     RDKit          3D

 13 13  0  0  0  0  0  0  0  0999 V2000
    3.1377   -3.8675   34.8010 C   0  0  0  0  0  0  0  0  0  0  0  0
    2.1716   -3.7894   35.7265 C   0  0  0  0  0  0  0  0  0  0  0  0
    0.6949   -3.8382   35.4754 C   0  0  0  0  0  0  0  0  0  0  0  0
    0.3303   -4.6433   34.2333 C   0  0  0  0  0  0  0  0  0  0  0  0
    0.0824   -4.0683   33.1645 O   0  0  0  0  0  0  0  0  0  0  0  0
    0.4480   -6.1915   34.3804 C   0  0  1  0  0  0  0  0  0  0  0  0
    0.1602   -6.6952   35.6844 O   0  0  0  0  0  0  0  0  0  0  0  0
   -0.3519   -6.9606   33.3450 C   0  0  0  0  0  0  0  0  0  0  0  0
   -0.0632   -6.7699   31.9882 C   0  0  0  0  0  0  0  0  0  0  0  0
   -0.7773   -7.4710   31.0383 C   0  0  0  0  0  0  0  0  0  0  0  0
   -1.7599   -8.3469   31.3385 N   0  0  0  0  0  0  0  0  0  0  0  0
   -2.0063   -8.5482   32.6507 C   0  0  0  0  0  0  0  0  0  0  0  0
   -1.3407   -7.8944   33.6750 C   0  0  0  0  0  0  0  0  0  0  0  0
  1  2  2  0
  2  3  1  0
  3  4  1  0
  4  5  2  0
  4  6  1  0
  6  7  1  1
  6  8  1  0
  8  9  2  0
  9 10  1  0
 10 11  2  0
 11 12  1  0
 12 13  2  0
 13  8  1  0
M  END
>  <smiles>  (74) 
C59513-P56

>  <fragmenstein_error>  (74) 


>  <ref_pdb>  (74) 
55

>  <HIPPO Compound ID>  (74) 
56667

>  <fragmenstein_runtime>  (74) 
1.659823

>  <Energy>  (74) 
78.286319

>  <fragmenstein_outcome>  (74) 
acceptable

>  <tags>  (74) 
{'fragmenstein_placed', 'openbind_d68ev3c_c1_knitwork_impure'}

>  <HIPPO Pose ID>  (74) 
56304

>  <inchikey>  (74) 
GJHIKUSDBDHXNS-UHFFFAOYSA-N

>  <alias>  (74) 
C=CCC(=O)[C@@H](O)c1ccncc1

>  <scratch_subdir>  (74) 
/opt/xchem-fragalysis-2/maxwin/BulkDock/SCRATCH/511023/C59513-P56

>  <fragmenstein_mode>  (74) 
expansion

$$$$
C[C@H](CCNS(=O)(=O)Cc1ccncc1)C(F)F
     RDKit          3D

 18 18  0  0  0  0  0  0  0  0999 V2000
    0.3898   -1.4720   37.5741 C   0  0  0  0  0  0  0  0  0  0  0  0
    1.3895   -2.5429   38.0271 C   0  0  2  0  0  0  0  0  0  0  0  0
    2.4918   -2.7822   36.9758 C   0  0  0  0  0  0  0  0  0  0  0  0
    2.2593   -3.8736   35.9322 C   0  0  0  0  0  0  0  0  0  0  0  0
    1.1523   -3.5136   35.0412 N   0  0  0  0  0  0  0  0  0  0  0  0
    1.0007   -4.4137   33.6096 S   0  0  0  0  0  0  0  0  0  0  0  0
   -0.0141   -3.7422   32.8234 O   0  0  0  0  0  0  0  0  0  0  0  0
    2.3353   -4.6052   33.0815 O   0  0  0  0  0  0  0  0  0  0  0  0
    0.3660   -5.9779   34.2717 C   0  0  0  0  0  0  0  0  0  0  0  0
   -0.3459   -6.8118   33.2378 C   0  0  0  0  0  0  0  0  0  0  0  0
   -0.0259   -6.7863   31.8797 C   0  0  0  0  0  0  0  0  0  0  0  0
   -0.7364   -7.5868   31.0061 C   0  0  0  0  0  0  0  0  0  0  0  0
   -1.7251   -8.4259   31.3861 N   0  0  0  0  0  0  0  0  0  0  0  0
   -1.9860   -8.4840   32.7081 C   0  0  0  0  0  0  0  0  0  0  0  0
   -1.3333   -7.7138   33.6576 C   0  0  0  0  0  0  0  0  0  0  0  0
    0.6621   -3.8059   38.4650 C   0  0  0  0  0  0  0  0  0  0  0  0
   -0.0630   -4.3267   37.4406 F   0  0  0  0  0  0  0  0  0  0  0  0
   -0.2206   -3.5144   39.4522 F   0  0  0  0  0  0  0  0  0  0  0  0
  2  1  1  6
  2  3  1  0
  3  4  1  0
  4  5  1  0
  5  6  1  0
  6  7  2  0
  6  8  2  0
  6  9  1  0
  9 10  1  0
 10 11  2  0
 11 12  1  0
 12 13  2  0
 13 14  1  0
 14 15  2  0
  2 16  1  0
 16 17  1  0
 16 18  1  0
 15 10  1  0
M  END
>  <smiles>  (75) 
C59524-P56

>  <fragmenstein_error>  (75) 


>  <ref_pdb>  (75) 
55

>  <HIPPO Compound ID>  (75) 
9941

>  <fragmenstein_runtime>  (75) 
17.755016

>  <Energy>  (75) 
-9.517885

>  <fragmenstein_outcome>  (75) 
acceptable

>  <tags>  (75) 
{'fragmenstein_placed', 'openbind_d68ev3c_c1_knitwork_impure'}

>  <HIPPO Pose ID>  (75) 
56310

>  <inchikey>  (75) 
NMGCHAPQFVYQDE-UHFFFAOYSA-N

>  <alias>  (75) 
C[C@H](CCNS(=O)(=O)Cc1ccncc1)C(F)F

>  <scratch_subdir>  (75) 
/opt/xchem-fragalysis-2/maxwin/BulkDock/SCRATCH/511023/C59524-P56

>  <fragmenstein_mode>  (75) 
expansion

$$$$
C=CCCCC(=O)[C@H](O)c1ccncc1
     RDKit          3D

 15 15  0  0  0  0  0  0  0  0999 V2000
    2.6027   -2.1402   37.5357 C   0  0  0  0  0  0  0  0  0  0  0  0
    1.9359   -3.0126   38.3002 C   0  0  0  0  0  0  0  0  0  0  0  0
    0.6253   -3.6806   38.0056 C   0  0  0  0  0  0  0  0  0  0  0  0
    0.0964   -3.6292   36.5696 C   0  0  0  0  0  0  0  0  0  0  0  0
    1.0827   -4.1557   35.5238 C   0  0  0  0  0  0  0  0  0  0  0  0
    0.3709   -4.7916   34.3444 C   0  0  0  0  0  0  0  0  0  0  0  0
    0.2514   -4.1639   33.2855 O   0  0  0  0  0  0  0  0  0  0  0  0
   -0.2548   -6.1833   34.6329 C   0  0  2  0  0  0  0  0  0  0  0  0
    0.5165   -7.0248   35.4887 O   0  0  0  0  0  0  0  0  0  0  0  0
   -0.6791   -7.0085   33.4451 C   0  0  0  0  0  0  0  0  0  0  0  0
   -0.1804   -6.8143   32.1566 C   0  0  0  0  0  0  0  0  0  0  0  0
   -0.7077   -7.5562   31.1188 C   0  0  0  0  0  0  0  0  0  0  0  0
   -1.6748   -8.4854   31.2781 N   0  0  0  0  0  0  0  0  0  0  0  0
   -2.0912   -8.7148   32.5395 C   0  0  0  0  0  0  0  0  0  0  0  0
   -1.6261   -8.0224   33.6391 C   0  0  0  0  0  0  0  0  0  0  0  0
  1  2  2  0
  2  3  1  0
  3  4  1  0
  4  5  1  0
  5  6  1  0
  6  7  2  0
  6  8  1  0
  8  9  1  6
  8 10  1  0
 10 11  2  0
 11 12  1  0
 12 13  2  0
 13 14  1  0
 14 15  2  0
 15 10  1  0
M  END
>  <smiles>  (76) 
C59530-P56

>  <fragmenstein_error>  (76) 


>  <ref_pdb>  (76) 
55

>  <HIPPO Compound ID>  (76) 
31678

>  <fragmenstein_runtime>  (76) 
2.345585

>  <Energy>  (76) 
66.824668

>  <fragmenstein_outcome>  (76) 
acceptable

>  <tags>  (76) 
{'fragmenstein_placed', 'openbind_d68ev3c_c1_knitwork_impure'}

>  <HIPPO Pose ID>  (76) 
56312

>  <inchikey>  (76) 
ZSCPYEQQTSRAEW-UHFFFAOYSA-N

>  <alias>  (76) 
C=CCCCC(=O)[C@H](O)c1ccncc1

>  <scratch_subdir>  (76) 
/opt/xchem-fragalysis-2/maxwin/BulkDock/SCRATCH/511023/C59530-P56

>  <fragmenstein_mode>  (76) 
expansion

$$$$
CN(CCc1nccs1)C(C)(C)CCO
     RDKit          3D

 15 15  0  0  0  0  0  0  0  0999 V2000
   15.6880   -1.5054   19.5928 C   0  0  0  0  0  0  0  0  0  0  0  0
   16.0447   -1.1361   18.2242 N   0  0  0  0  0  0  0  0  0  0  0  0
   14.9159   -1.2534   17.3182 C   0  0  0  0  0  0  0  0  0  0  0  0
   14.8919   -2.6566   16.7184 C   0  0  0  0  0  0  0  0  0  0  0  0
   13.6801   -2.7221   15.8684 C   0  0  0  0  0  0  0  0  0  0  0  0
   13.5108   -1.9782   14.7974 N   0  0  0  0  0  0  0  0  0  0  0  0
   12.2336   -2.1479   14.3237 C   0  0  0  0  0  0  0  0  0  0  0  0
   11.4518   -3.0235   15.0403 C   0  0  0  0  0  0  0  0  0  0  0  0
   12.3440   -3.6699   16.3452 S   0  0  0  0  0  0  0  0  0  0  0  0
   16.9072    0.0478   18.0318 C   0  0  0  0  0  0  0  0  0  0  0  0
   18.0146    0.0917   19.1053 C   0  0  0  0  0  0  0  0  0  0  0  0
   17.6730   -0.1632   16.6910 C   0  0  0  0  0  0  0  0  0  0  0  0
   16.1894    1.4293   17.9275 C   0  0  0  0  0  0  0  0  0  0  0  0
   15.1989    1.8033   19.0221 C   0  0  0  0  0  0  0  0  0  0  0  0
   15.8011    1.7991   20.3029 O   0  0  0  0  0  0  0  0  0  0  0  0
  1  2  1  0
  2  3  1  0
  3  4  1  0
  4  5  1  0
  5  6  2  0
  6  7  1  0
  7  8  2  0
  8  9  1  0
  2 10  1  0
 10 11  1  0
 10 12  1  0
 10 13  1  0
 13 14  1  0
 14 15  1  0
  9  5  1  0
M  END
>  <smiles>  (77) 
C59725-P71

>  <fragmenstein_error>  (77) 


>  <ref_pdb>  (77) 
55

>  <HIPPO Compound ID>  (77) 
28783

>  <fragmenstein_runtime>  (77) 
4.011265

>  <Energy>  (77) 
42.716735

>  <fragmenstein_outcome>  (77) 
acceptable

>  <tags>  (77) 
{'fragmenstein_placed', 'openbind_d68ev3c_c1_knitwork_impure'}

>  <HIPPO Pose ID>  (77) 
56354

>  <inchikey>  (77) 
CFEURGIEXKEWOQ-UHFFFAOYSA-N

>  <alias>  (77) 
CN(CCc1nccs1)C(C)(C)CCO

>  <scratch_subdir>  (77) 
/opt/xchem-fragalysis-2/maxwin/BulkDock/SCRATCH/511023/C59725-P71

>  <fragmenstein_mode>  (77) 
expansion

$$$$
c1cnc2ncc([C@H]3CCCNC3)n2c1
     RDKit          3D

 15 17  0  0  0  0  0  0  0  0999 V2000
   14.4437    0.6526   17.4315 C   0  0  0  0  0  0  0  0  0  0  0  0
   13.3590    1.3513   16.6947 C   0  0  0  0  0  0  0  0  0  0  0  0
   12.3886    0.7912   16.0426 N   0  0  0  0  0  0  0  0  0  0  0  0
   12.3739   -0.5746   16.0354 C   0  0  0  0  0  0  0  0  0  0  0  0
   11.4652   -1.3769   15.5288 N   0  0  0  0  0  0  0  0  0  0  0  0
   11.9235   -2.6466   15.7369 C   0  0  0  0  0  0  0  0  0  0  0  0
   13.1089   -2.6512   16.4488 C   0  0  0  0  0  0  0  0  0  0  0  0
   13.9412   -3.8227   16.8941 C   0  0  1  0  0  0  0  0  0  0  0  0
   15.3823   -3.8029   16.3320 C   0  0  0  0  0  0  0  0  0  0  0  0
   16.4588   -3.8293   17.4162 C   0  0  0  0  0  0  0  0  0  0  0  0
   16.2140   -4.9155   18.4621 C   0  0  0  0  0  0  0  0  0  0  0  0
   14.8085   -5.1460   18.7921 N   0  0  0  0  0  0  0  0  0  0  0  0
   13.9300   -4.0347   18.4186 C   0  0  0  0  0  0  0  0  0  0  0  0
   13.3790   -1.3131   16.6659 N   0  0  0  0  0  0  0  0  0  0  0  0
   14.3980   -0.6837   17.3710 C   0  0  0  0  0  0  0  0  0  0  0  0
  1  2  1  0
  2  3  2  0
  3  4  1  0
  4  5  2  0
  5  6  1  0
  6  7  2  0
  8  7  1  1
  8  9  1  0
  9 10  1  0
 10 11  1  0
 11 12  1  0
 12 13  1  0
  7 14  1  0
 14 15  1  0
 15  1  2  0
 14  4  1  0
 13  8  1  0
M  END
>  <smiles>  (78) 
C46886-P106

>  <fragmenstein_error>  (78) 


>  <ref_pdb>  (78) 
55

>  <HIPPO Compound ID>  (78) 
60665

>  <fragmenstein_runtime>  (78) 
2.167682

>  <Energy>  (78) 
45.811443

>  <fragmenstein_outcome>  (78) 
acceptable

>  <tags>  (78) 
{'fragmenstein_placed', 'openbind_d68ev3c_c1_knitwork_impure'}

>  <HIPPO Pose ID>  (78) 
56554

>  <inchikey>  (78) 
VFKTYUMVUIBRPG-UHFFFAOYSA-N

>  <alias>  (78) 
c1cnc2ncc([C@H]3CCCNC3)n2c1

>  <scratch_subdir>  (78) 
/opt/xchem-fragalysis-2/maxwin/BulkDock/SCRATCH/511023/C46886-P106

>  <fragmenstein_mode>  (78) 
expansion

$$$$
c1cc([C@@H]2CCCN2)n2ccnc2n1
     RDKit          3D

 14 16  0  0  0  0  0  0  0  0999 V2000
   13.8099    0.9575   17.0099 C   0  0  0  0  0  0  0  0  0  0  0  0
   14.8143   -0.0947   17.3190 C   0  0  0  0  0  0  0  0  0  0  0  0
   14.5086   -1.3482   16.9294 C   0  0  0  0  0  0  0  0  0  0  0  0
   15.4402   -2.5295   17.0393 C   0  0  2  0  0  0  0  0  0  0  0  0
   16.6798   -2.4206   17.9277 C   0  0  0  0  0  0  0  0  0  0  0  0
   17.5992   -3.5167   17.3919 C   0  0  0  0  0  0  0  0  0  0  0  0
   17.1374   -3.7527   15.9641 C   0  0  0  0  0  0  0  0  0  0  0  0
   16.0789   -2.7739   15.7392 N   0  0  0  0  0  0  0  0  0  0  0  0
   13.2439   -1.5485   16.3459 N   0  0  0  0  0  0  0  0  0  0  0  0
   12.6239   -2.6954   15.9096 C   0  0  0  0  0  0  0  0  0  0  0  0
   11.4153   -2.2955   15.3983 C   0  0  0  0  0  0  0  0  0  0  0  0
   11.2243   -0.9571   15.5958 N   0  0  0  0  0  0  0  0  0  0  0  0
   12.3487   -0.5021   16.1100 C   0  0  0  0  0  0  0  0  0  0  0  0
   12.6621    0.7826   16.4372 N   0  0  0  0  0  0  0  0  0  0  0  0
  1  2  1  0
  2  3  2  0
  4  3  1  6
  4  5  1  0
  5  6  1  0
  6  7  1  0
  7  8  1  0
  3  9  1  0
  9 10  1  0
 10 11  2  0
 11 12  1  0
 12 13  2  0
 13 14  1  0
 14  1  2  0
  8  4  1  0
 13  9  1  0
M  END
>  <smiles>  (79) 
C8757-P106

>  <fragmenstein_error>  (79) 


>  <ref_pdb>  (79) 
55

>  <HIPPO Compound ID>  (79) 
30265

>  <fragmenstein_runtime>  (79) 
1.358425

>  <Energy>  (79) 
18.016829

>  <fragmenstein_outcome>  (79) 
acceptable

>  <tags>  (79) 
{'fragmenstein_placed', 'openbind_d68ev3c_c1_knitwork_impure'}

>  <HIPPO Pose ID>  (79) 
56557

>  <inchikey>  (79) 
XSRXGMUGZYCKQU-UHFFFAOYSA-N

>  <alias>  (79) 
c1cc([C@@H]2CCCN2)n2ccnc2n1

>  <scratch_subdir>  (79) 
/opt/xchem-fragalysis-2/maxwin/BulkDock/SCRATCH/511023/C8757-P106

>  <fragmenstein_mode>  (79) 
expansion

$$$$
c1cnc2ncc([C@@H]3CCCN3)n2c1
     RDKit          3D

 14 16  0  0  0  0  0  0  0  0999 V2000
   14.4556    0.6502   17.3711 C   0  0  0  0  0  0  0  0  0  0  0  0
   13.3556    1.3628   16.6709 C   0  0  0  0  0  0  0  0  0  0  0  0
   12.3626    0.8185   16.0388 N   0  0  0  0  0  0  0  0  0  0  0  0
   12.3346   -0.5475   16.0211 C   0  0  0  0  0  0  0  0  0  0  0  0
   11.4117   -1.3384   15.5191 N   0  0  0  0  0  0  0  0  0  0  0  0
   11.8569   -2.6148   15.7221 C   0  0  0  0  0  0  0  0  0  0  0  0
   13.0395   -2.6327   16.4350 C   0  0  0  0  0  0  0  0  0  0  0  0
   13.8448   -3.7820   16.9155 C   0  0  2  0  0  0  0  0  0  0  0  0
   13.8419   -3.9624   18.4348 C   0  0  0  0  0  0  0  0  0  0  0  0
   15.3047   -4.0796   18.8413 C   0  0  0  0  0  0  0  0  0  0  0  0
   16.0465   -4.3305   17.5461 C   0  0  0  0  0  0  0  0  0  0  0  0
   15.2566   -3.6173   16.5532 N   0  0  0  0  0  0  0  0  0  0  0  0
   13.3415   -1.2983   16.6315 N   0  0  0  0  0  0  0  0  0  0  0  0
   14.3923   -0.6848   17.3071 C   0  0  0  0  0  0  0  0  0  0  0  0
  1  2  1  0
  2  3  2  0
  3  4  1  0
  4  5  2  0
  5  6  1  0
  6  7  2  0
  8  7  1  1
  8  9  1  0
  9 10  1  0
 10 11  1  0
 11 12  1  0
  7 13  1  0
 13 14  1  0
 14  1  2  0
 13  4  1  0
 12  8  1  0
M  END
>  <smiles>  (80) 
C26011-P106

>  <fragmenstein_error>  (80) 


>  <ref_pdb>  (80) 
55

>  <HIPPO Compound ID>  (80) 
8896

>  <fragmenstein_runtime>  (80) 
1.145642

>  <Energy>  (80) 
7.796999

>  <fragmenstein_outcome>  (80) 
acceptable

>  <tags>  (80) 
{'fragmenstein_placed', 'openbind_d68ev3c_c1_knitwork_impure'}

>  <HIPPO Pose ID>  (80) 
56559

>  <inchikey>  (80) 
DWXFIWMBCQPSKZ-UHFFFAOYSA-N

>  <alias>  (80) 
c1cnc2ncc([C@@H]3CCCN3)n2c1

>  <scratch_subdir>  (80) 
/opt/xchem-fragalysis-2/maxwin/BulkDock/SCRATCH/511023/C26011-P106

>  <fragmenstein_mode>  (80) 
expansion

$$$$
Cc1cn2cc([C@@H]3CCCN3)cnc2n1
     RDKit          3D

 15 17  0  0  0  0  0  0  0  0999 V2000
   11.1807   -3.2245   15.0231 C   0  0  0  0  0  0  0  0  0  0  0  0
   12.0443   -2.2388   15.6704 C   0  0  0  0  0  0  0  0  0  0  0  0
   13.1806   -2.4641   16.4093 C   0  0  0  0  0  0  0  0  0  0  0  0
   13.6034   -1.2237   16.7841 N   0  0  0  0  0  0  0  0  0  0  0  0
   14.6641   -0.8651   17.5934 C   0  0  0  0  0  0  0  0  0  0  0  0
   14.8815    0.4330   17.8605 C   0  0  0  0  0  0  0  0  0  0  0  0
   15.9681    0.9549   18.7453 C   0  0  2  0  0  0  0  0  0  0  0  0
   15.4627    1.7607   19.9479 C   0  0  0  0  0  0  0  0  0  0  0  0
   16.4703    2.8878   20.0781 C   0  0  0  0  0  0  0  0  0  0  0  0
   16.8624    3.1488   18.6392 C   0  0  0  0  0  0  0  0  0  0  0  0
   16.9355    1.8131   18.0521 N   0  0  0  0  0  0  0  0  0  0  0  0
   13.9196    1.3673   17.1900 C   0  0  0  0  0  0  0  0  0  0  0  0
   12.9182    1.0427   16.4308 N   0  0  0  0  0  0  0  0  0  0  0  0
   12.7307   -0.2914   16.2331 C   0  0  0  0  0  0  0  0  0  0  0  0
   11.7543   -0.9021   15.6005 N   0  0  0  0  0  0  0  0  0  0  0  0
  1  2  1  0
  2  3  2  0
  3  4  1  0
  4  5  1  0
  5  6  2  0
  7  6  1  6
  7  8  1  0
  8  9  1  0
  9 10  1  0
 10 11  1  0
  6 12  1  0
 12 13  2  0
 13 14  1  0
 14 15  2  0
 15  2  1  0
 14  4  1  0
 11  7  1  0
M  END
>  <smiles>  (81) 
C26018-P106

>  <fragmenstein_error>  (81) 


>  <ref_pdb>  (81) 
55

>  <HIPPO Compound ID>  (81) 
59056

>  <fragmenstein_runtime>  (81) 
0.930798

>  <Energy>  (81) 
24.344968

>  <fragmenstein_outcome>  (81) 
acceptable

>  <tags>  (81) 
{'fragmenstein_placed', 'openbind_d68ev3c_c1_knitwork_impure'}

>  <HIPPO Pose ID>  (81) 
56565

>  <inchikey>  (81) 
KXBDVAURFIPJRW-UHFFFAOYSA-N

>  <alias>  (81) 
Cc1cn2cc([C@@H]3CCCN3)cnc2n1

>  <scratch_subdir>  (81) 
/opt/xchem-fragalysis-2/maxwin/BulkDock/SCRATCH/511023/C26018-P106

>  <fragmenstein_mode>  (81) 
expansion

$$$$
Cc1nc2ncccn2c1[C@H]1CCCN1
     RDKit          3D

 15 17  0  0  0  0  0  0  0  0999 V2000
   11.3669   -3.3061   15.2195 C   0  0  0  0  0  0  0  0  0  0  0  0
   12.1863   -2.2497   15.8226 C   0  0  0  0  0  0  0  0  0  0  0  0
   11.7916   -0.9496   15.6734 N   0  0  0  0  0  0  0  0  0  0  0  0
   12.7209   -0.2252   16.2451 C   0  0  0  0  0  0  0  0  0  0  0  0
   12.7863    1.1340   16.3321 N   0  0  0  0  0  0  0  0  0  0  0  0
   13.7410    1.6126   17.0648 C   0  0  0  0  0  0  0  0  0  0  0  0
   14.7644    0.8254   17.8009 C   0  0  0  0  0  0  0  0  0  0  0  0
   14.6791   -0.5016   17.6480 C   0  0  0  0  0  0  0  0  0  0  0  0
   13.6716   -1.0438   16.8596 N   0  0  0  0  0  0  0  0  0  0  0  0
   13.3668   -2.3547   16.5442 C   0  0  0  0  0  0  0  0  0  0  0  0
   14.1736   -3.5667   16.8930 C   0  0  1  0  0  0  0  0  0  0  0  0
   15.6228   -3.5331   16.4011 C   0  0  0  0  0  0  0  0  0  0  0  0
   16.4788   -3.7214   17.6417 C   0  0  0  0  0  0  0  0  0  0  0  0
   15.5435   -4.3534   18.6487 C   0  0  0  0  0  0  0  0  0  0  0  0
   14.2147   -3.8374   18.3332 N   0  0  0  0  0  0  0  0  0  0  0  0
  1  2  1  0
  2  3  1  0
  3  4  2  0
  4  5  1  0
  5  6  2  0
  6  7  1  0
  7  8  2  0
  8  9  1  0
  9 10  1  0
 11 10  1  1
 11 12  1  0
 12 13  1  0
 13 14  1  0
 14 15  1  0
 10  2  2  0
 15 11  1  0
  9  4  1  0
M  END
>  <smiles>  (82) 
C26019-P106

>  <fragmenstein_error>  (82) 


>  <ref_pdb>  (82) 
55

>  <HIPPO Compound ID>  (82) 
50961

>  <fragmenstein_runtime>  (82) 
0.889159

>  <Energy>  (82) 
15.594527

>  <fragmenstein_outcome>  (82) 
acceptable

>  <tags>  (82) 
{'fragmenstein_placed', 'openbind_d68ev3c_c1_knitwork_impure'}

>  <HIPPO Pose ID>  (82) 
56566

>  <inchikey>  (82) 
UGPTYTFYCRAORV-UHFFFAOYSA-N

>  <alias>  (82) 
Cc1nc2ncccn2c1[C@H]1CCCN1

>  <scratch_subdir>  (82) 
/opt/xchem-fragalysis-2/maxwin/BulkDock/SCRATCH/511023/C26019-P106

>  <fragmenstein_mode>  (82) 
expansion

$$$$
c1cc([C@@H]2NCCS2)cs1
     RDKit          3D

 10 11  0  0  0  0  0  0  0  0999 V2000
   11.4644   -1.0857   14.8772 C   0  0  0  0  0  0  0  0  0  0  0  0
   12.6608   -0.4629   15.1396 C   0  0  0  0  0  0  0  0  0  0  0  0
   13.6194   -1.3253   15.7725 C   0  0  0  0  0  0  0  0  0  0  0  0
   15.0191   -0.8788   16.0983 C   0  0  2  0  0  0  0  0  0  0  0  0
   15.9983   -1.7436   15.4437 N   0  0  0  0  0  0  0  0  0  0  0  0
   16.5134   -2.7026   16.4190 C   0  0  0  0  0  0  0  0  0  0  0  0
   16.7694   -1.9589   17.7216 C   0  0  0  0  0  0  0  0  0  0  0  0
   15.3441   -0.8659   17.8739 S   0  0  0  0  0  0  0  0  0  0  0  0
   13.0534   -2.5716   16.0022 C   0  0  0  0  0  0  0  0  0  0  0  0
   11.4794   -2.7178   15.3584 S   0  0  0  0  0  0  0  0  0  0  0  0
  1  2  2  0
  2  3  1  0
  4  3  1  1
  4  5  1  0
  5  6  1  0
  6  7  1  0
  7  8  1  0
  3  9  2  0
  9 10  1  0
 10  1  1  0
  8  4  1  0
M  END
>  <smiles>  (83) 
C55775-P120

>  <fragmenstein_error>  (83) 


>  <ref_pdb>  (83) 
124

>  <HIPPO Compound ID>  (83) 
15762

>  <fragmenstein_runtime>  (83) 
0.642808

>  <Energy>  (83) 
-1.17851

>  <fragmenstein_outcome>  (83) 
acceptable

>  <tags>  (83) 
{'fragmenstein_placed', 'openbind_d68ev3c_c1_knitwork_impure'}

>  <HIPPO Pose ID>  (83) 
57480

>  <inchikey>  (83) 
SAPWDUDYSPXPKC-UHFFFAOYSA-N

>  <alias>  (83) 
c1cc([C@@H]2NCCS2)cs1

>  <scratch_subdir>  (83) 
/opt/xchem-fragalysis-2/maxwin/BulkDock/SCRATCH/511024/C55775-P120

>  <fragmenstein_mode>  (83) 
expansion

$$$$
O=C(NCCNc1cnccn1)c1ccn2ccnc2c1
     RDKit          3D

 21 23  0  0  0  0  0  0  0  0999 V2000
   -9.6318  -29.5788   26.3662 O   0  0  0  0  0  0  0  0  0  0  0  0
   -9.6128  -28.6154   27.0197 C   0  0  0  0  0  0  0  0  0  0  0  0
  -10.6834  -28.0256   27.9644 N   0  0  0  0  0  0  0  0  0  0  0  0
  -12.0338  -28.4491   28.2267 C   0  0  0  0  0  0  0  0  0  0  0  0
  -13.0025  -27.2695   28.3770 C   0  0  0  0  0  0  0  0  0  0  0  0
  -12.7050  -26.1816   27.4311 N   0  0  0  0  0  0  0  0  0  0  0  0
  -12.0494  -25.0441   27.9651 C   0  0  0  0  0  0  0  0  0  0  0  0
  -11.8796  -23.9309   27.1323 C   0  0  0  0  0  0  0  0  0  0  0  0
  -11.4860  -22.7164   27.5731 N   0  0  0  0  0  0  0  0  0  0  0  0
  -11.2670  -22.6255   28.8873 C   0  0  0  0  0  0  0  0  0  0  0  0
  -11.3587  -23.7251   29.7105 C   0  0  0  0  0  0  0  0  0  0  0  0
  -11.7119  -24.9604   29.2719 N   0  0  0  0  0  0  0  0  0  0  0  0
   -8.4007  -27.7090   26.9965 C   0  0  0  0  0  0  0  0  0  0  0  0
   -7.0849  -28.2884   26.6856 C   0  0  0  0  0  0  0  0  0  0  0  0
   -5.9917  -27.5047   26.7021 C   0  0  0  0  0  0  0  0  0  0  0  0
   -6.1457  -26.1517   26.9814 N   0  0  0  0  0  0  0  0  0  0  0  0
   -5.2041  -25.1777   27.1738 C   0  0  0  0  0  0  0  0  0  0  0  0
   -5.9064  -24.0467   27.5228 C   0  0  0  0  0  0  0  0  0  0  0  0
   -7.2534  -24.2842   27.5401 N   0  0  0  0  0  0  0  0  0  0  0  0
   -7.3764  -25.5498   27.2069 C   0  0  0  0  0  0  0  0  0  0  0  0
   -8.5253  -26.3738   27.1522 C   0  0  0  0  0  0  0  0  0  0  0  0
  1  2  2  0
  2  3  1  0
  3  4  1  0
  4  5  1  0
  5  6  1  0
  6  7  1  0
  7  8  2  0
  8  9  1  0
  9 10  2  0
 10 11  1  0
 11 12  2  0
  2 13  1  0
 13 14  1  0
 14 15  2  0
 15 16  1  0
 16 17  1  0
 17 18  2  0
 18 19  1  0
 19 20  2  0
 20 21  1  0
 12  7  1  0
 21 13  2  0
 20 16  1  0
M  END
>  <smiles>  (84) 
C82210-P45

>  <fragmenstein_error>  (84) 


>  <ref_pdb>  (84) 
124

>  <HIPPO Compound ID>  (84) 
81324

>  <fragmenstein_runtime>  (84) 
4.594883

>  <Energy>  (84) 
78.075796

>  <fragmenstein_outcome>  (84) 
acceptable

>  <tags>  (84) 
{'fragmenstein_placed', 'openbind_d68ev3c_c1_knitwork_impure'}

>  <HIPPO Pose ID>  (84) 
57805

>  <inchikey>  (84) 
CDKSOTGZRXMGNQ-UHFFFAOYSA-N

>  <alias>  (84) 
O=C(NCCNc1cnccn1)c1ccn2ccnc2c1

>  <scratch_subdir>  (84) 
/opt/xchem-fragalysis-2/maxwin/BulkDock/SCRATCH/511024/C82210-P45

>  <fragmenstein_mode>  (84) 
expansion

$$$$
CS(=O)(=O)CCO[C@@H]1CCCCC1=O
     RDKit          3D

 14 14  0  0  0  0  0  0  0  0999 V2000
   17.7655    0.7770   12.8384 C   0  0  0  0  0  0  0  0  0  0  0  0
   16.3622    1.3038   11.8823 S   0  0  0  0  0  0  0  0  0  0  0  0
   16.0302    0.2377   10.9571 O   0  0  0  0  0  0  0  0  0  0  0  0
   16.6563    2.6391   11.3970 O   0  0  0  0  0  0  0  0  0  0  0  0
   15.0565    1.4478   13.0744 C   0  0  0  0  0  0  0  0  0  0  0  0
   14.5643    0.1019   13.5711 C   0  0  0  0  0  0  0  0  0  0  0  0
   13.6744    0.3571   14.6590 O   0  0  0  0  0  0  0  0  0  0  0  0
   13.2089   -0.7759   15.3688 C   0  0  2  0  0  0  0  0  0  0  0  0
   14.2703   -1.2923   16.3587 C   0  0  0  0  0  0  0  0  0  0  0  0
   14.3112   -2.8148   16.4962 C   0  0  0  0  0  0  0  0  0  0  0  0
   12.9257   -3.4400   16.6357 C   0  0  0  0  0  0  0  0  0  0  0  0
   11.9126   -2.9625   15.6012 C   0  0  0  0  0  0  0  0  0  0  0  0
   12.5329   -1.9643   14.6628 C   0  0  0  0  0  0  0  0  0  0  0  0
   12.4708   -2.1142   13.4488 O   0  0  0  0  0  0  0  0  0  0  0  0
  1  2  1  0
  2  3  2  0
  2  4  2  0
  2  5  1  0
  5  6  1  0
  6  7  1  0
  8  7  1  6
  8  9  1  0
  9 10  1  0
 10 11  1  0
 11 12  1  0
 12 13  1  0
 13 14  2  0
 13  8  1  0
M  END
>  <smiles>  (85) 
C82224-P111

>  <fragmenstein_error>  (85) 


>  <ref_pdb>  (85) 
124

>  <HIPPO Compound ID>  (85) 
84049

>  <fragmenstein_runtime>  (85) 
26.696027

>  <Energy>  (85) 
35.175555

>  <fragmenstein_outcome>  (85) 
acceptable

>  <tags>  (85) 
{'fragmenstein_placed', 'openbind_d68ev3c_c1_knitwork_impure'}

>  <HIPPO Pose ID>  (85) 
57820

>  <inchikey>  (85) 
RGGRDGXDORGAOO-UHFFFAOYSA-N

>  <alias>  (85) 
CS(=O)(=O)CCO[C@@H]1CCCCC1=O

>  <scratch_subdir>  (85) 
/opt/xchem-fragalysis-2/maxwin/BulkDock/SCRATCH/511024/C82224-P111

>  <fragmenstein_mode>  (85) 
expansion

$$$$
c1cn(-c2ncsn2)cn1
     RDKit          3D

 10 11  0  0  0  0  0  0  0  0999 V2000
   -9.5917  -27.7385   31.0222 C   0  0  0  0  0  0  0  0  0  0  0  0
  -10.1083  -27.2479   29.8500 C   0  0  0  0  0  0  0  0  0  0  0  0
  -10.5711  -25.9841   30.1445 N   0  0  0  0  0  0  0  0  0  0  0  0
  -11.0859  -25.0235   29.2271 C   0  0  0  0  0  0  0  0  0  0  0  0
  -11.3556  -23.7190   29.6330 N   0  0  0  0  0  0  0  0  0  0  0  0
  -11.6948  -23.0390   28.5564 C   0  0  0  0  0  0  0  0  0  0  0  0
  -11.7571  -24.0104   27.1462 S   0  0  0  0  0  0  0  0  0  0  0  0
  -11.2370  -25.3772   27.9485 N   0  0  0  0  0  0  0  0  0  0  0  0
  -10.3856  -25.8217   31.4972 C   0  0  0  0  0  0  0  0  0  0  0  0
   -9.8155  -26.8696   32.0550 N   0  0  0  0  0  0  0  0  0  0  0  0
  1  2  2  0
  2  3  1  0
  3  4  1  0
  4  5  1  0
  5  6  2  0
  6  7  1  0
  7  8  1  0
  3  9  1  0
  9 10  2  0
 10  1  1  0
  8  4  2  0
M  END
>  <smiles>  (86) 
C50834-P35

>  <fragmenstein_error>  (86) 


>  <ref_pdb>  (86) 
124

>  <HIPPO Compound ID>  (86) 
59662

>  <fragmenstein_runtime>  (86) 
0.797271

>  <Energy>  (86) 
35.118921

>  <fragmenstein_outcome>  (86) 
acceptable

>  <tags>  (86) 
{'fragmenstein_placed', 'openbind_d68ev3c_c1_knitwork_impure'}

>  <HIPPO Pose ID>  (86) 
58003

>  <inchikey>  (86) 
CTROOXARLGSBET-UHFFFAOYSA-N

>  <alias>  (86) 
c1cn(-c2ncsn2)cn1

>  <scratch_subdir>  (86) 
/opt/xchem-fragalysis-2/maxwin/BulkDock/SCRATCH/511024/C50834-P35

>  <fragmenstein_mode>  (86) 
expansion

$$$$
c1cnc(-n2ccnc2)cn1
     RDKit          3D

 11 12  0  0  0  0  0  0  0  0999 V2000
  -11.6701  -22.7485   28.2604 C   0  0  0  0  0  0  0  0  0  0  0  0
  -11.3219  -23.9148   27.6113 C   0  0  0  0  0  0  0  0  0  0  0  0
  -11.0258  -25.0467   28.2825 N   0  0  0  0  0  0  0  0  0  0  0  0
  -11.1070  -24.9750   29.6410 C   0  0  0  0  0  0  0  0  0  0  0  0
  -10.6332  -26.0820   30.3875 N   0  0  0  0  0  0  0  0  0  0  0  0
  -10.1154  -27.2399   29.8531 C   0  0  0  0  0  0  0  0  0  0  0  0
   -9.6767  -27.9791   30.9204 C   0  0  0  0  0  0  0  0  0  0  0  0
   -9.9725  -27.3547   32.0990 N   0  0  0  0  0  0  0  0  0  0  0  0
  -10.5145  -26.2099   31.7500 C   0  0  0  0  0  0  0  0  0  0  0  0
  -11.5501  -23.8195   30.2777 C   0  0  0  0  0  0  0  0  0  0  0  0
  -11.8287  -22.6741   29.6007 N   0  0  0  0  0  0  0  0  0  0  0  0
  1  2  2  0
  2  3  1  0
  3  4  2  0
  4  5  1  0
  5  6  1  0
  6  7  2  0
  7  8  1  0
  8  9  2  0
  4 10  1  0
 10 11  2  0
 11  1  1  0
  9  5  1  0
M  END
>  <smiles>  (87) 
C50835-P35

>  <fragmenstein_error>  (87) 


>  <ref_pdb>  (87) 
124

>  <HIPPO Compound ID>  (87) 
65802

>  <fragmenstein_runtime>  (87) 
3.526262

>  <Energy>  (87) 
79.168045

>  <fragmenstein_outcome>  (87) 
acceptable

>  <tags>  (87) 
{'fragmenstein_placed', 'openbind_d68ev3c_c1_knitwork_impure'}

>  <HIPPO Pose ID>  (87) 
58004

>  <inchikey>  (87) 
OKTZSEGXTZJCTM-UHFFFAOYSA-N

>  <alias>  (87) 
c1cnc(-n2ccnc2)cn1

>  <scratch_subdir>  (87) 
/opt/xchem-fragalysis-2/maxwin/BulkDock/SCRATCH/511024/C50835-P35

>  <fragmenstein_mode>  (87) 
expansion

$$$$
c1cc([C@H]2CCCNC2)c2cc[nH]c2c1
     RDKit          3D

 15 17  0  0  0  0  0  0  0  0999 V2000
   12.2408   -3.7583   16.3599 C   0  0  0  0  0  0  0  0  0  0  0  0
   13.5464   -3.5947   16.8021 C   0  0  0  0  0  0  0  0  0  0  0  0
   14.3826   -2.5723   16.3025 C   0  0  0  0  0  0  0  0  0  0  0  0
   15.8445   -2.6121   16.7335 C   0  0  1  0  0  0  0  0  0  0  0  0
   16.7715   -3.0023   15.5755 C   0  0  0  0  0  0  0  0  0  0  0  0
   18.2101   -3.1876   16.0685 C   0  0  0  0  0  0  0  0  0  0  0  0
   18.4950   -2.4498   17.3812 C   0  0  0  0  0  0  0  0  0  0  0  0
   17.8057   -1.1613   17.4419 N   0  0  0  0  0  0  0  0  0  0  0  0
   16.3401   -1.3303   17.4331 C   0  0  0  0  0  0  0  0  0  0  0  0
   13.8068   -1.6666   15.3675 C   0  0  0  0  0  0  0  0  0  0  0  0
   14.2804   -0.5354   14.6368 C   0  0  0  0  0  0  0  0  0  0  0  0
   13.2599   -0.0762   13.8335 C   0  0  0  0  0  0  0  0  0  0  0  0
   12.1794   -0.8914   14.0262 N   0  0  0  0  0  0  0  0  0  0  0  0
   12.4837   -1.8578   14.9577 C   0  0  0  0  0  0  0  0  0  0  0  0
   11.6839   -2.8994   15.4200 C   0  0  0  0  0  0  0  0  0  0  0  0
  1  2  2  0
  2  3  1  0
  4  3  1  6
  4  5  1  0
  5  6  1  0
  6  7  1  0
  7  8  1  0
  8  9  1  0
  3 10  2  0
 10 11  1  0
 11 12  2  0
 12 13  1  0
 13 14  1  0
 14 15  2  0
 15  1  1  0
  9  4  1  0
 14 10  1  0
M  END
>  <smiles>  (88) 
C14523-P97

>  <fragmenstein_error>  (88) 


>  <ref_pdb>  (88) 
124

>  <HIPPO Compound ID>  (88) 
30350

>  <fragmenstein_runtime>  (88) 
1.010041

>  <Energy>  (88) 
38.93946

>  <fragmenstein_outcome>  (88) 
acceptable

>  <tags>  (88) 
{'fragmenstein_placed', 'openbind_d68ev3c_c1_knitwork_impure'}

>  <HIPPO Pose ID>  (88) 
59097

>  <inchikey>  (88) 
FQRXTCCFXFSOPJ-UHFFFAOYSA-N

>  <alias>  (88) 
c1cc([C@H]2CCCNC2)c2cc[nH]c2c1

>  <scratch_subdir>  (88) 
/opt/xchem-fragalysis-2/maxwin/BulkDock/SCRATCH/511024/C14523-P97

>  <fragmenstein_mode>  (88) 
expansion

$$$$
c1cc([C@]23CNC[C@H]2C3)c2cc[nH]c2c1
     RDKit          3D

 15 18  0  0  0  0  0  0  0  0999 V2000
   12.3974   -3.7690   16.4274 C   0  0  0  0  0  0  0  0  0  0  0  0
   13.7177   -3.5199   16.7837 C   0  0  0  0  0  0  0  0  0  0  0  0
   14.4581   -2.4794   16.1920 C   0  0  0  0  0  0  0  0  0  0  0  0
   15.9283   -2.2812   16.4639 C   0  0  2  0  0  0  0  0  0  0  0  0
   16.3221   -1.1289   17.3561 C   0  0  0  0  0  0  0  0  0  0  0  0
   17.7197   -0.8029   16.9875 N   0  0  0  0  0  0  0  0  0  0  0  0
   17.9097   -1.2304   15.5872 C   0  0  0  0  0  0  0  0  0  0  0  0
   16.9542   -2.3590   15.3893 C   0  0  1  0  0  0  0  0  0  0  0  0
   16.8517   -3.5016   16.3570 C   0  0  0  0  0  0  0  0  0  0  0  0
   13.7779   -1.6252   15.2809 C   0  0  0  0  0  0  0  0  0  0  0  0
   14.1376   -0.4684   14.5258 C   0  0  0  0  0  0  0  0  0  0  0  0
   13.0496   -0.0871   13.7727 C   0  0  0  0  0  0  0  0  0  0  0  0
   12.0379   -0.9741   14.0215 N   0  0  0  0  0  0  0  0  0  0  0  0
   12.4481   -1.9018   14.9523 C   0  0  0  0  0  0  0  0  0  0  0  0
   11.7422   -2.9770   15.4877 C   0  0  0  0  0  0  0  0  0  0  0  0
  1  2  2  0
  2  3  1  0
  4  3  1  6
  4  5  1  0
  5  6  1  0
  6  7  1  0
  8  7  1  1
  8  9  1  0
  3 10  2  0
 10 11  1  0
 11 12  2  0
 12 13  1  0
 13 14  1  0
 14 15  2  0
 15  1  1  0
  8  4  1  0
 14 10  1  0
  9  4  1  0
M  END
>  <smiles>  (89) 
C47099-P97

>  <fragmenstein_error>  (89) 


>  <ref_pdb>  (89) 
124

>  <HIPPO Compound ID>  (89) 
48399

>  <fragmenstein_runtime>  (89) 
1.255522

>  <Energy>  (89) 
37.554178

>  <fragmenstein_outcome>  (89) 
acceptable

>  <tags>  (89) 
{'fragmenstein_placed', 'openbind_d68ev3c_c1_knitwork_impure'}

>  <HIPPO Pose ID>  (89) 
59106

>  <inchikey>  (89) 
UWVOQVCKLYTECW-UHFFFAOYSA-N

>  <alias>  (89) 
c1cc([C@]23CNC[C@H]2C3)c2cc[nH]c2c1

>  <scratch_subdir>  (89) 
/opt/xchem-fragalysis-2/maxwin/BulkDock/SCRATCH/511024/C47099-P97

>  <fragmenstein_mode>  (89) 
expansion

$$$$
CC(F)(F)CCS(=O)(=O)NC(=O)c1cnc2ncccn12
     RDKit          3D

 21 22  0  0  0  0  0  0  0  0999 V2000
   19.3296   -1.1553   19.2794 C   0  0  0  0  0  0  0  0  0  0  0  0
   18.5806   -2.4568   19.0937 C   0  0  0  0  0  0  0  0  0  0  0  0
   19.2134   -3.4399   19.7758 F   0  0  0  0  0  0  0  0  0  0  0  0
   17.3405   -2.3298   19.6354 F   0  0  0  0  0  0  0  0  0  0  0  0
   18.4268   -2.8572   17.6416 C   0  0  0  0  0  0  0  0  0  0  0  0
   17.7833   -4.2348   17.5323 C   0  0  0  0  0  0  0  0  0  0  0  0
   17.0739   -4.5147   15.9187 S   0  0  0  0  0  0  0  0  0  0  0  0
   16.7358   -5.9131   15.7999 O   0  0  0  0  0  0  0  0  0  0  0  0
   17.9189   -3.8580   14.9441 O   0  0  0  0  0  0  0  0  0  0  0  0
   15.6936   -3.6355   15.9996 N   0  0  0  0  0  0  0  0  0  0  0  0
   14.3632   -3.9063   16.7714 C   0  0  0  0  0  0  0  0  0  0  0  0
   14.0844   -4.7568   17.5238 O   0  0  0  0  0  0  0  0  0  0  0  0
   13.4439   -2.8426   16.4509 C   0  0  0  0  0  0  0  0  0  0  0  0
   12.1687   -2.9188   15.9254 C   0  0  0  0  0  0  0  0  0  0  0  0
   11.6218   -1.6744   15.7507 N   0  0  0  0  0  0  0  0  0  0  0  0
   12.5340   -0.8191   16.1583 C   0  0  0  0  0  0  0  0  0  0  0  0
   12.4821    0.5438   16.1724 N   0  0  0  0  0  0  0  0  0  0  0  0
   13.4548    1.1523   16.7787 C   0  0  0  0  0  0  0  0  0  0  0  0
   14.6129    0.5033   17.4537 C   0  0  0  0  0  0  0  0  0  0  0  0
   14.6478   -0.8327   17.3630 C   0  0  0  0  0  0  0  0  0  0  0  0
   13.6272   -1.4998   16.6933 N   0  0  0  0  0  0  0  0  0  0  0  0
  1  2  1  0
  2  3  1  0
  2  4  1  0
  2  5  1  0
  5  6  1  0
  6  7  1  0
  7  8  2  0
  7  9  2  0
  7 10  1  0
 10 11  1  0
 11 12  2  0
 11 13  1  0
 13 14  2  0
 14 15  1  0
 15 16  2  0
 16 17  1  0
 17 18  2  0
 18 19  1  0
 19 20  2  0
 20 21  1  0
 21 13  1  0
 21 16  1  0
M  END
>  <smiles>  (90) 
C76355-P106

>  <fragmenstein_error>  (90) 


>  <ref_pdb>  (90) 
124

>  <HIPPO Compound ID>  (90) 
55785

>  <fragmenstein_runtime>  (90) 
1.24891

>  <Energy>  (90) 
-124.057144

>  <fragmenstein_outcome>  (90) 
acceptable

>  <tags>  (90) 
{'fragmenstein_placed', 'openbind_d68ev3c_c1_knitwork_impure'}

>  <HIPPO Pose ID>  (90) 
59193

>  <inchikey>  (90) 
IVXYRQXNWSBHCM-UHFFFAOYSA-N

>  <alias>  (90) 
CC(F)(F)CCS(=O)(=O)NC(=O)c1cnc2ncccn12

>  <scratch_subdir>  (90) 
/opt/xchem-fragalysis-2/maxwin/BulkDock/SCRATCH/511024/C76355-P106

>  <fragmenstein_mode>  (90) 
expansion

$$$$
COC[C@@H](O)c1cnc2ncccn12
     RDKit          3D

 14 15  0  0  0  0  0  0  0  0999 V2000
   17.6767   -2.9736   16.5182 C   0  0  0  0  0  0  0  0  0  0  0  0
   16.3620   -3.0012   17.0647 O   0  0  0  0  0  0  0  0  0  0  0  0
   15.4545   -3.6996   16.1976 C   0  0  0  0  0  0  0  0  0  0  0  0
   14.0354   -3.6985   16.8014 C   0  0  1  0  0  0  0  0  0  0  0  0
   14.0837   -3.7612   18.2218 O   0  0  0  0  0  0  0  0  0  0  0  0
   13.1841   -2.5437   16.4151 C   0  0  0  0  0  0  0  0  0  0  0  0
   12.0070   -2.5335   15.6903 C   0  0  0  0  0  0  0  0  0  0  0  0
   11.5436   -1.2634   15.5017 N   0  0  0  0  0  0  0  0  0  0  0  0
   12.4349   -0.4691   16.0526 C   0  0  0  0  0  0  0  0  0  0  0  0
   12.4436    0.8958   16.0870 N   0  0  0  0  0  0  0  0  0  0  0  0
   13.3789    1.4445   16.7984 C   0  0  0  0  0  0  0  0  0  0  0  0
   14.4295    0.7340   17.5729 C   0  0  0  0  0  0  0  0  0  0  0  0
   14.3994   -0.6004   17.4749 C   0  0  0  0  0  0  0  0  0  0  0  0
   13.4237   -1.2162   16.7000 N   0  0  0  0  0  0  0  0  0  0  0  0
  1  2  1  0
  2  3  1  0
  3  4  1  0
  4  5  1  1
  4  6  1  0
  6  7  2  0
  7  8  1  0
  8  9  2  0
  9 10  1  0
 10 11  2  0
 11 12  1  0
 12 13  2  0
 13 14  1  0
 14  6  1  0
 14  9  1  0
M  END
>  <smiles>  (91) 
C76360-P106

>  <fragmenstein_error>  (91) 


>  <ref_pdb>  (91) 
124

>  <HIPPO Compound ID>  (91) 
82192

>  <fragmenstein_runtime>  (91) 
0.994301

>  <Energy>  (91) 
42.035998

>  <fragmenstein_outcome>  (91) 
acceptable

>  <tags>  (91) 
{'fragmenstein_placed', 'openbind_d68ev3c_c1_knitwork_impure'}

>  <HIPPO Pose ID>  (91) 
59197

>  <inchikey>  (91) 
ZZQXOQMUWVJTQM-UHFFFAOYSA-N

>  <alias>  (91) 
COC[C@@H](O)c1cnc2ncccn12

>  <scratch_subdir>  (91) 
/opt/xchem-fragalysis-2/maxwin/BulkDock/SCRATCH/511024/C76360-P106

>  <fragmenstein_mode>  (91) 
expansion

$$$$
C[C@H](O)C(=O)c1cnc2ncccn12
     RDKit          3D

 14 15  0  0  0  0  0  0  0  0999 V2000
   16.5361   -3.9199   17.6026 C   0  0  0  0  0  0  0  0  0  0  0  0
   15.6356   -3.7392   16.3865 C   0  0  2  0  0  0  0  0  0  0  0  0
   16.0768   -2.5999   15.6671 O   0  0  0  0  0  0  0  0  0  0  0  0
   14.1459   -3.7779   16.8172 C   0  0  0  0  0  0  0  0  0  0  0  0
   13.7217   -4.7726   17.4099 O   0  0  0  0  0  0  0  0  0  0  0  0
   13.2802   -2.6857   16.4439 C   0  0  0  0  0  0  0  0  0  0  0  0
   12.0278   -2.7579   15.8659 C   0  0  0  0  0  0  0  0  0  0  0  0
   11.5004   -1.5148   15.6479 N   0  0  0  0  0  0  0  0  0  0  0  0
   12.4091   -0.6601   16.0650 C   0  0  0  0  0  0  0  0  0  0  0  0
   12.3595    0.7039   16.0528 N   0  0  0  0  0  0  0  0  0  0  0  0
   13.3201    1.3198   16.6703 C   0  0  0  0  0  0  0  0  0  0  0  0
   14.4582    0.6834   17.3839 C   0  0  0  0  0  0  0  0  0  0  0  0
   14.4871   -0.6535   17.3237 C   0  0  0  0  0  0  0  0  0  0  0  0
   13.4858   -1.3371   16.6422 N   0  0  0  0  0  0  0  0  0  0  0  0
  2  1  1  1
  2  3  1  0
  2  4  1  0
  4  5  2  0
  4  6  1  0
  6  7  2  0
  7  8  1  0
  8  9  2  0
  9 10  1  0
 10 11  2  0
 11 12  1  0
 12 13  2  0
 13 14  1  0
 14  6  1  0
 14  9  1  0
M  END
>  <smiles>  (92) 
C76374-P106

>  <fragmenstein_error>  (92) 


>  <ref_pdb>  (92) 
124

>  <HIPPO Compound ID>  (92) 
49240

>  <fragmenstein_runtime>  (92) 
0.839271

>  <Energy>  (92) 
52.941976

>  <fragmenstein_outcome>  (92) 
acceptable

>  <tags>  (92) 
{'fragmenstein_placed', 'openbind_d68ev3c_c1_knitwork_impure'}

>  <HIPPO Pose ID>  (92) 
59209

>  <inchikey>  (92) 
OQVMECVQLJBPSY-UHFFFAOYSA-N

>  <alias>  (92) 
C[C@H](O)C(=O)c1cnc2ncccn12

>  <scratch_subdir>  (92) 
/opt/xchem-fragalysis-2/maxwin/BulkDock/SCRATCH/511024/C76374-P106

>  <fragmenstein_mode>  (92) 
expansion

$$$$
CCOC(=O)[C@H]1CCn2c(cnc2CCN(C)C)C1
     RDKit          3D

 19 20  0  0  0  0  0  0  0  0999 V2000
  -20.7500  -27.4802   26.3558 C   0  0  0  0  0  0  0  0  0  0  0  0
  -19.8271  -28.1437   25.3526 C   0  0  0  0  0  0  0  0  0  0  0  0
  -18.4793  -27.7797   25.6795 O   0  0  0  0  0  0  0  0  0  0  0  0
  -17.5392  -28.3097   24.8528 C   0  0  0  0  0  0  0  0  0  0  0  0
  -17.7677  -29.0356   23.8942 O   0  0  0  0  0  0  0  0  0  0  0  0
  -16.1473  -27.8923   25.2605 C   0  0  1  0  0  0  0  0  0  0  0  0
  -15.9839  -26.3707   25.2778 C   0  0  0  0  0  0  0  0  0  0  0  0
  -14.5401  -25.9787   25.5967 C   0  0  0  0  0  0  0  0  0  0  0  0
  -13.9414  -26.7855   26.6417 N   0  0  0  0  0  0  0  0  0  0  0  0
  -14.4583  -27.9835   27.0739 C   0  0  0  0  0  0  0  0  0  0  0  0
  -13.5075  -28.4928   27.9228 C   0  0  0  0  0  0  0  0  0  0  0  0
  -12.4497  -27.6330   28.0251 N   0  0  0  0  0  0  0  0  0  0  0  0
  -12.7315  -26.5895   27.2670 C   0  0  0  0  0  0  0  0  0  0  0  0
  -11.8724  -25.3640   27.1056 C   0  0  0  0  0  0  0  0  0  0  0  0
  -12.2546  -24.2602   28.1098 C   0  0  0  0  0  0  0  0  0  0  0  0
  -11.4016  -24.1395   29.3033 N   0  0  0  0  0  0  0  0  0  0  0  0
  -11.9473  -23.1051   30.1919 C   0  0  0  0  0  0  0  0  0  0  0  0
  -11.2480  -25.3912   30.0479 C   0  0  0  0  0  0  0  0  0  0  0  0
  -15.7712  -28.5051   26.6100 C   0  0  0  0  0  0  0  0  0  0  0  0
  1  2  1  0
  2  3  1  0
  3  4  1  0
  4  5  2  0
  6  4  1  1
  6  7  1  0
  7  8  1  0
  8  9  1  0
  9 10  1  0
 10 11  2  0
 11 12  1  0
 12 13  2  0
 13 14  1  0
 14 15  1  0
 15 16  1  0
 16 17  1  0
 16 18  1  0
 10 19  1  0
 19  6  1  0
 13  9  1  0
M  END
>  <smiles>  (93) 
C92145-P123

>  <fragmenstein_error>  (93) 


>  <ref_pdb>  (93) 
122

>  <HIPPO Compound ID>  (93) 
47727

>  <fragmenstein_runtime>  (93) 
5.164932

>  <Energy>  (93) 
14.276287

>  <fragmenstein_outcome>  (93) 
acceptable

>  <tags>  (93) 
{'fragmenstein_placed', 'openbind_d68ev3c_c1_knitwork_impure'}

>  <HIPPO Pose ID>  (93) 
59905

>  <inchikey>  (93) 
KBYWMZPGWHLXQB-UHFFFAOYSA-N

>  <alias>  (93) 
CCOC(=O)[C@H]1CCn2c(cnc2CCN(C)C)C1

>  <scratch_subdir>  (93) 
/opt/xchem-fragalysis-2/maxwin/BulkDock/SCRATCH/511025/C92145-P123

>  <fragmenstein_mode>  (93) 
expansion

$$$$
c1ccc(-c2cccnc2)nc1
     RDKit          3D

 12 13  0  0  0  0  0  0  0  0999 V2000
  -11.7846  -26.0230    7.9304 C   0  0  0  0  0  0  0  0  0  0  0  0
  -11.5779  -26.6732    9.1387 C   0  0  0  0  0  0  0  0  0  0  0  0
  -12.3161  -26.2903   10.2581 C   0  0  0  0  0  0  0  0  0  0  0  0
  -13.2571  -25.2672   10.1419 C   0  0  0  0  0  0  0  0  0  0  0  0
  -14.1006  -24.8298   11.2683 C   0  0  0  0  0  0  0  0  0  0  0  0
  -13.6343  -24.7307   12.5872 C   0  0  0  0  0  0  0  0  0  0  0  0
  -14.4826  -24.2910   13.6057 C   0  0  0  0  0  0  0  0  0  0  0  0
  -15.7832  -23.9486   13.2848 C   0  0  0  0  0  0  0  0  0  0  0  0
  -16.2816  -24.0306   12.0385 N   0  0  0  0  0  0  0  0  0  0  0  0
  -15.4331  -24.4625   11.0686 C   0  0  0  0  0  0  0  0  0  0  0  0
  -13.4569  -24.6207    8.9625 N   0  0  0  0  0  0  0  0  0  0  0  0
  -12.7215  -25.0074    7.8930 C   0  0  0  0  0  0  0  0  0  0  0  0
  1  2  2  0
  2  3  1  0
  3  4  2  0
  4  5  1  0
  5  6  2  0
  6  7  1  0
  7  8  2  0
  8  9  1  0
  9 10  2  0
  4 11  1  0
 11 12  2  0
 12  1  1  0
 10  5  1  0
M  END
>  <smiles>  (94) 
C7676-P48

>  <fragmenstein_error>  (94) 


>  <ref_pdb>  (94) 
122

>  <HIPPO Compound ID>  (94) 
15320

>  <fragmenstein_runtime>  (94) 
1.381343

>  <Energy>  (94) 
43.290158

>  <fragmenstein_outcome>  (94) 
acceptable

>  <tags>  (94) 
{'fragmenstein_placed', 'openbind_d68ev3c_c1_knitwork_impure'}

>  <HIPPO Pose ID>  (94) 
59967

>  <inchikey>  (94) 
BULTUWPSNNDDDR-UHFFFAOYSA-N

>  <alias>  (94) 
c1ccc(-c2cccnc2)nc1

>  <scratch_subdir>  (94) 
/opt/xchem-fragalysis-2/maxwin/BulkDock/SCRATCH/511025/C7676-P48

>  <fragmenstein_mode>  (94) 
expansion

$$$$
CCc1ccc([C@@H](O)CS(=O)(=O)Cc2cn3ccccc3n2)cc1
     RDKit          3D

 24 26  0  0  0  0  0  0  0  0999 V2000
   13.5617    4.1125    5.3769 C   0  0  0  0  0  0  0  0  0  0  0  0
   13.9641    5.2132    6.3463 C   0  0  0  0  0  0  0  0  0  0  0  0
   13.8944    4.7519    7.7800 C   0  0  0  0  0  0  0  0  0  0  0  0
   15.0417    4.2970    8.4375 C   0  0  0  0  0  0  0  0  0  0  0  0
   14.9734    3.8572    9.7619 C   0  0  0  0  0  0  0  0  0  0  0  0
   13.7542    3.8538   10.4577 C   0  0  0  0  0  0  0  0  0  0  0  0
   13.7188    3.3481   11.8882 C   0  0  1  0  0  0  0  0  0  0  0  0
   12.5354    3.8006   12.5609 O   0  0  0  0  0  0  0  0  0  0  0  0
   13.7832    1.8234   11.9630 C   0  0  0  0  0  0  0  0  0  0  0  0
   15.1599    1.3056   12.9769 S   0  0  0  0  0  0  0  0  0  0  0  0
   15.2963   -0.1329   12.8383 O   0  0  0  0  0  0  0  0  0  0  0  0
   16.2966    2.1444   12.6297 O   0  0  0  0  0  0  0  0  0  0  0  0
   14.6608    1.6962   14.6657 C   0  0  0  0  0  0  0  0  0  0  0  0
   14.0519    0.5257   15.3279 C   0  0  0  0  0  0  0  0  0  0  0  0
   14.6240   -0.3971   16.1838 C   0  0  0  0  0  0  0  0  0  0  0  0
   13.7336   -1.4394   16.2330 N   0  0  0  0  0  0  0  0  0  0  0  0
   13.8535   -2.6874   16.8374 C   0  0  0  0  0  0  0  0  0  0  0  0
   12.8743   -3.5882   16.6567 C   0  0  0  0  0  0  0  0  0  0  0  0
   11.7406   -3.2342   15.8201 C   0  0  0  0  0  0  0  0  0  0  0  0
   11.6065   -2.0104   15.2814 C   0  0  0  0  0  0  0  0  0  0  0  0
   12.6296   -1.0495   15.4809 C   0  0  0  0  0  0  0  0  0  0  0  0
   12.7662    0.1706   15.0119 N   0  0  0  0  0  0  0  0  0  0  0  0
   12.6081    4.3046    9.7908 C   0  0  0  0  0  0  0  0  0  0  0  0
   12.6762    4.7489    8.4674 C   0  0  0  0  0  0  0  0  0  0  0  0
  1  2  1  0
  2  3  1  0
  3  4  2  0
  4  5  1  0
  5  6  2  0
  6  7  1  0
  7  8  1  6
  7  9  1  0
  9 10  1  0
 10 11  2  0
 10 12  2  0
 10 13  1  0
 13 14  1  0
 14 15  2  0
 15 16  1  0
 16 17  1  0
 17 18  2  0
 18 19  1  0
 19 20  2  0
 20 21  1  0
 21 22  2  0
  6 23  1  0
 23 24  2  0
 24  3  1  0
 22 14  1  0
 21 16  1  0
M  END
>  <smiles>  (95) 
C60360-P111

>  <fragmenstein_error>  (95) 


>  <ref_pdb>  (95) 
122

>  <HIPPO Compound ID>  (95) 
36756

>  <fragmenstein_runtime>  (95) 
4.656188

>  <Energy>  (95) 
56.780052

>  <fragmenstein_outcome>  (95) 
acceptable

>  <tags>  (95) 
{'fragmenstein_placed', 'openbind_d68ev3c_c1_knitwork_impure'}

>  <HIPPO Pose ID>  (95) 
60073

>  <inchikey>  (95) 
LNWLAHSBGZRGGL-UHFFFAOYSA-N

>  <alias>  (95) 
CCc1ccc([C@@H](O)CS(=O)(=O)Cc2cn3ccccc3n2)cc1

>  <scratch_subdir>  (95) 
/opt/xchem-fragalysis-2/maxwin/BulkDock/SCRATCH/511025/C60360-P111

>  <fragmenstein_mode>  (95) 
expansion

$$$$
c1cnc(N2CCCC3(CC3)C2)nc1
     RDKit          3D

 14 16  0  0  0  0  0  0  0  0999 V2000
  -11.8374  -24.1302   27.2150 C   0  0  0  0  0  0  0  0  0  0  0  0
  -11.6870  -22.8784   27.7448 C   0  0  0  0  0  0  0  0  0  0  0  0
  -11.3931  -22.6581   29.0361 N   0  0  0  0  0  0  0  0  0  0  0  0
  -11.1841  -23.7289   29.8288 C   0  0  0  0  0  0  0  0  0  0  0  0
  -10.7947  -23.5473   31.1680 N   0  0  0  0  0  0  0  0  0  0  0  0
   -9.6208  -24.3620   31.4521 C   0  0  0  0  0  0  0  0  0  0  0  0
   -9.0965  -24.1638   32.8650 C   0  0  0  0  0  0  0  0  0  0  0  0
   -8.8394  -22.7037   33.1189 C   0  0  0  0  0  0  0  0  0  0  0  0
  -10.0901  -21.9066   32.8490 C   0  0  0  0  0  0  0  0  0  0  0  0
  -10.8242  -21.3241   34.0366 C   0  0  0  0  0  0  0  0  0  0  0  0
   -9.9801  -20.4519   33.1703 C   0  0  0  0  0  0  0  0  0  0  0  0
  -10.7479  -22.1426   31.5179 C   0  0  0  0  0  0  0  0  0  0  0  0
  -11.2994  -24.9909   29.3775 N   0  0  0  0  0  0  0  0  0  0  0  0
  -11.6333  -25.1648   28.0882 C   0  0  0  0  0  0  0  0  0  0  0  0
  1  2  2  0
  2  3  1  0
  3  4  2  0
  4  5  1  0
  5  6  1  0
  6  7  1  0
  7  8  1  0
  8  9  1  0
  9 10  1  0
 10 11  1  0
  9 12  1  0
  4 13  1  0
 13 14  2  0
 14  1  1  0
 12  5  1  0
 11  9  1  0
M  END
>  <smiles>  (96) 
C48198-P54

>  <fragmenstein_error>  (96) 


>  <ref_pdb>  (96) 
122

>  <HIPPO Compound ID>  (96) 
57308

>  <fragmenstein_runtime>  (96) 
1.803729

>  <Energy>  (96) 
-51.733394

>  <fragmenstein_outcome>  (96) 
acceptable

>  <tags>  (96) 
{'fragmenstein_placed', 'openbind_d68ev3c_c1_knitwork_impure'}

>  <HIPPO Pose ID>  (96) 
60094

>  <inchikey>  (96) 
DTUXGVQWDHQFID-UHFFFAOYSA-N

>  <alias>  (96) 
c1cnc(N2CCCC3(CC3)C2)nc1

>  <scratch_subdir>  (96) 
/opt/xchem-fragalysis-2/maxwin/BulkDock/SCRATCH/511025/C48198-P54

>  <fragmenstein_mode>  (96) 
expansion

$$$$
CC(C)CN(C)S(=O)(=O)NC[C@@H]1CNCc2ccccc21
     RDKit          3D

 21 22  0  0  0  0  0  0  0  0999 V2000
   12.3658    4.3010   11.6279 C   0  0  0  0  0  0  0  0  0  0  0  0
   12.4676    4.4813   13.1448 C   0  0  0  0  0  0  0  0  0  0  0  0
   11.0697    4.6920   13.7311 C   0  0  0  0  0  0  0  0  0  0  0  0
   13.1431    3.2765   13.8236 C   0  0  0  0  0  0  0  0  0  0  0  0
   14.5627    3.1882   13.4232 N   0  0  0  0  0  0  0  0  0  0  0  0
   15.5074    3.8181   14.3524 C   0  0  0  0  0  0  0  0  0  0  0  0
   15.0898    1.8552   12.5696 S   0  0  0  0  0  0  0  0  0  0  0  0
   16.3689    2.1560   11.9717 O   0  0  0  0  0  0  0  0  0  0  0  0
   14.0048    1.3210   11.7891 O   0  0  0  0  0  0  0  0  0  0  0  0
   15.4581    0.7918   13.7862 N   0  0  0  0  0  0  0  0  0  0  0  0
   14.4309    0.0966   14.5648 C   0  0  0  0  0  0  0  0  0  0  0  0
   14.4478   -1.4110   14.2605 C   0  0  2  0  0  0  0  0  0  0  0  0
   13.5216   -1.7765   13.0905 C   0  0  0  0  0  0  0  0  0  0  0  0
   12.1022   -1.7400   13.4535 N   0  0  0  0  0  0  0  0  0  0  0  0
   11.8022   -2.7432   14.4703 C   0  0  0  0  0  0  0  0  0  0  0  0
   12.8226   -2.8347   15.5837 C   0  0  0  0  0  0  0  0  0  0  0  0
   12.5565   -3.6521   16.6882 C   0  0  0  0  0  0  0  0  0  0  0  0
   13.4951   -3.8199   17.7062 C   0  0  0  0  0  0  0  0  0  0  0  0
   14.7262   -3.1807   17.6283 C   0  0  0  0  0  0  0  0  0  0  0  0
   15.0227   -2.3863   16.5235 C   0  0  0  0  0  0  0  0  0  0  0  0
   14.0814   -2.2163   15.4930 C   0  0  0  0  0  0  0  0  0  0  0  0
  1  2  1  0
  2  3  1  0
  2  4  1  0
  4  5  1  0
  5  6  1  0
  5  7  1  0
  7  8  2  0
  7  9  2  0
  7 10  1  0
 10 11  1  0
 12 11  1  1
 12 13  1  0
 13 14  1  0
 14 15  1  0
 15 16  1  0
 16 17  2  0
 17 18  1  0
 18 19  2  0
 19 20  1  0
 20 21  2  0
 21 12  1  0
 21 16  1  0
M  END
>  <smiles>  (97) 
C92484-P146

>  <fragmenstein_error>  (97) 


>  <ref_pdb>  (97) 
122

>  <HIPPO Compound ID>  (97) 
10038

>  <fragmenstein_runtime>  (97) 
4.669499

>  <Energy>  (97) 
-125.71713

>  <fragmenstein_outcome>  (97) 
acceptable

>  <tags>  (97) 
{'fragmenstein_placed', 'openbind_d68ev3c_c1_knitwork_impure'}

>  <HIPPO Pose ID>  (97) 
60236

>  <inchikey>  (97) 
YMISOSHVSVVEFC-UHFFFAOYSA-N

>  <alias>  (97) 
CC(C)CN(C)S(=O)(=O)NC[C@@H]1CNCc2ccccc21

>  <scratch_subdir>  (97) 
/opt/xchem-fragalysis-2/maxwin/BulkDock/SCRATCH/511025/C92484-P146

>  <fragmenstein_mode>  (97) 
expansion

$$$$
CCC(C)(C)CCS(=O)(=O)NC(=O)[C@@H]1CNCc2ccccc21
     RDKit          3D

 23 24  0  0  0  0  0  0  0  0999 V2000
   13.4681    6.2114    8.2245 C   0  0  0  0  0  0  0  0  0  0  0  0
   14.3308    5.4924    9.2523 C   0  0  0  0  0  0  0  0  0  0  0  0
   13.7053    4.2460    9.9498 C   0  0  0  0  0  0  0  0  0  0  0  0
   12.4376    4.6421   10.7260 C   0  0  0  0  0  0  0  0  0  0  0  0
   13.3599    3.1600    8.9178 C   0  0  0  0  0  0  0  0  0  0  0  0
   14.7748    3.7222   10.9441 C   0  0  0  0  0  0  0  0  0  0  0  0
   14.4565    2.4204   11.6857 C   0  0  0  0  0  0  0  0  0  0  0  0
   15.6902    2.1814   12.9717 S   0  0  0  0  0  0  0  0  0  0  0  0
   16.9901    2.1239   12.3382 O   0  0  0  0  0  0  0  0  0  0  0  0
   15.4167    3.0820   14.0641 O   0  0  0  0  0  0  0  0  0  0  0  0
   15.4177    0.6552   13.4558 N   0  0  0  0  0  0  0  0  0  0  0  0
   14.1610    0.0132   14.1324 C   0  0  0  0  0  0  0  0  0  0  0  0
   13.1674    0.5070   14.5105 O   0  0  0  0  0  0  0  0  0  0  0  0
   14.3474   -1.5047   14.1578 C   0  0  2  0  0  0  0  0  0  0  0  0
   13.4569   -2.0184   13.0234 C   0  0  0  0  0  0  0  0  0  0  0  0
   12.0316   -1.9699   13.3719 N   0  0  0  0  0  0  0  0  0  0  0  0
   11.7472   -2.8784   14.4856 C   0  0  0  0  0  0  0  0  0  0  0  0
   12.7868   -2.8708   15.5886 C   0  0  0  0  0  0  0  0  0  0  0  0
   12.5748   -3.6530   16.7286 C   0  0  0  0  0  0  0  0  0  0  0  0
   13.5289   -3.7211   17.7432 C   0  0  0  0  0  0  0  0  0  0  0  0
   14.7139   -3.0017   17.6335 C   0  0  0  0  0  0  0  0  0  0  0  0
   14.9566   -2.2337   16.4961 C   0  0  0  0  0  0  0  0  0  0  0  0
   14.0094   -2.1844   15.4607 C   0  0  0  0  0  0  0  0  0  0  0  0
  1  2  1  0
  2  3  1  0
  3  4  1  0
  3  5  1  0
  3  6  1  0
  6  7  1  0
  7  8  1  0
  8  9  2  0
  8 10  2  0
  8 11  1  0
 11 12  1  0
 12 13  2  0
 14 12  1  1
 14 15  1  0
 15 16  1  0
 16 17  1  0
 17 18  1  0
 18 19  2  0
 19 20  1  0
 20 21  2  0
 21 22  1  0
 22 23  2  0
 23 14  1  0
 23 18  1  0
M  END
>  <smiles>  (98) 
C92490-P146

>  <fragmenstein_error>  (98) 


>  <ref_pdb>  (98) 
122

>  <HIPPO Compound ID>  (98) 
7379

>  <fragmenstein_runtime>  (98) 
3.69457

>  <Energy>  (98) 
-25.128394

>  <fragmenstein_outcome>  (98) 
acceptable

>  <tags>  (98) 
{'fragmenstein_placed', 'openbind_d68ev3c_c1_knitwork_impure'}

>  <HIPPO Pose ID>  (98) 
60239

>  <inchikey>  (98) 
KPSBRSOPAKLMDT-UHFFFAOYSA-N

>  <alias>  (98) 
CCC(C)(C)CCS(=O)(=O)NC(=O)[C@@H]1CNCc2ccccc21

>  <scratch_subdir>  (98) 
/opt/xchem-fragalysis-2/maxwin/BulkDock/SCRATCH/511025/C92490-P146

>  <fragmenstein_mode>  (98) 
expansion

$$$$
c1csc([C@@H]2CCCOC2)n1
     RDKit          3D

 11 12  0  0  0  0  0  0  0  0999 V2000
  -12.3873  -24.9630    7.8150 C   0  0  0  0  0  0  0  0  0  0  0  0
  -12.0896  -26.2679    8.1364 C   0  0  0  0  0  0  0  0  0  0  0  0
  -12.7074  -26.6319    9.6918 S   0  0  0  0  0  0  0  0  0  0  0  0
  -13.3415  -25.0321    9.8139 C   0  0  0  0  0  0  0  0  0  0  0  0
  -14.1252  -24.5555   11.0138 C   0  0  2  0  0  0  0  0  0  0  0  0
  -13.3227  -24.5375   12.3238 C   0  0  0  0  0  0  0  0  0  0  0  0
  -14.2380  -24.4660   13.5505 C   0  0  0  0  0  0  0  0  0  0  0  0
  -15.6056  -23.8989   13.2070 C   0  0  0  0  0  0  0  0  0  0  0  0
  -16.2832  -24.6737   12.2183 O   0  0  0  0  0  0  0  0  0  0  0  0
  -15.4488  -25.2880   11.2243 C   0  0  0  0  0  0  0  0  0  0  0  0
  -13.1009  -24.2629    8.7696 N   0  0  0  0  0  0  0  0  0  0  0  0
  1  2  2  0
  2  3  1  0
  3  4  1  0
  5  4  1  6
  5  6  1  0
  6  7  1  0
  7  8  1  0
  8  9  1  0
  9 10  1  0
  4 11  2  0
 11  1  1  0
 10  5  1  0
M  END
>  <smiles>  (99) 
C38925-P112

>  <fragmenstein_error>  (99) 


>  <ref_pdb>  (99) 
122

>  <HIPPO Compound ID>  (99) 
58027

>  <fragmenstein_runtime>  (99) 
0.909689

>  <Energy>  (99) 
26.702892

>  <fragmenstein_outcome>  (99) 
acceptable

>  <tags>  (99) 
{'fragmenstein_placed', 'openbind_d68ev3c_c1_knitwork_impure'}

>  <HIPPO Pose ID>  (99) 
60617

>  <inchikey>  (99) 
MGMVXOYBSGBRGY-UHFFFAOYSA-N

>  <alias>  (99) 
c1csc([C@@H]2CCCOC2)n1

>  <scratch_subdir>  (99) 
/opt/xchem-fragalysis-2/maxwin/BulkDock/SCRATCH/511025/C38925-P112

>  <fragmenstein_mode>  (99) 
expansion

$$$$
CC(C)(CO)NC[C@]12CCC[C@H]1OCC2
     RDKit          3D

 15 16  0  0  0  0  0  0  0  0999 V2000
   16.4939    2.2145   16.1028 C   0  0  0  0  0  0  0  0  0  0  0  0
   15.4959    1.8662   14.9872 C   0  0  0  0  0  0  0  0  0  0  0  0
   14.1565    2.5638   15.2741 C   0  0  0  0  0  0  0  0  0  0  0  0
   16.0589    2.3919   13.6355 C   0  0  0  0  0  0  0  0  0  0  0  0
   15.1569    2.1875   12.5456 O   0  0  0  0  0  0  0  0  0  0  0  0
   15.3217    0.4124   14.8264 N   0  0  0  0  0  0  0  0  0  0  0  0
   15.1703   -0.3891   16.0314 C   0  0  0  0  0  0  0  0  0  0  0  0
   14.7998   -1.8544   15.7183 C   0  0  2  0  0  0  0  0  0  0  0  0
   13.4684   -1.9526   14.9384 C   0  0  0  0  0  0  0  0  0  0  0  0
   12.5583   -2.8991   15.7198 C   0  0  0  0  0  0  0  0  0  0  0  0
   13.4626   -3.6570   16.6722 C   0  0  0  0  0  0  0  0  0  0  0  0
   14.5880   -2.6803   16.9921 C   0  0  1  0  0  0  0  0  0  0  0  0
   15.7865   -3.3969   17.2932 O   0  0  0  0  0  0  0  0  0  0  0  0
   16.7458   -3.1530   16.2601 C   0  0  0  0  0  0  0  0  0  0  0  0
   15.9967   -2.5620   15.0809 C   0  0  0  0  0  0  0  0  0  0  0  0
  1  2  1  0
  2  3  1  0
  2  4  1  0
  4  5  1  0
  2  6  1  0
  6  7  1  0
  8  7  1  1
  8  9  1  0
  9 10  1  0
 10 11  1  0
 12 11  1  6
 12 13  1  0
 13 14  1  0
 14 15  1  0
 12  8  1  0
 15  8  1  0
M  END
>  <smiles>  (100) 
C93122-P76

>  <fragmenstein_error>  (100) 


>  <ref_pdb>  (100) 
122

>  <HIPPO Compound ID>  (100) 
10619

>  <fragmenstein_runtime>  (100) 
1.397408

>  <Energy>  (100) 
57.715652

>  <fragmenstein_outcome>  (100) 
acceptable

>  <tags>  (100) 
{'fragmenstein_placed', 'openbind_d68ev3c_c1_knitwork_impure'}

>  <HIPPO Pose ID>  (100) 
60750

>  <inchikey>  (100) 
AYPZUCGQRPWDNB-UHFFFAOYSA-N

>  <alias>  (100) 
CC(C)(CO)NC[C@]12CCC[C@H]1OCC2

>  <scratch_subdir>  (100) 
/opt/xchem-fragalysis-2/maxwin/BulkDock/SCRATCH/511025/C93122-P76

>  <fragmenstein_mode>  (100) 
expansion

$$$$
CC(C)(CO)N(Cc1ccccc1)[C@@H]1CCC(=O)C1
     RDKit          3D

 19 20  0  0  0  0  0  0  0  0999 V2000
   15.5848    1.1558   16.4384 C   0  0  0  0  0  0  0  0  0  0  0  0
   15.2266    1.6693   15.0106 C   0  0  0  0  0  0  0  0  0  0  0  0
   14.3976    2.9504   15.2643 C   0  0  0  0  0  0  0  0  0  0  0  0
   16.5957    2.0101   14.3387 C   0  0  0  0  0  0  0  0  0  0  0  0
   16.5219    3.0191   13.3444 O   0  0  0  0  0  0  0  0  0  0  0  0
   14.4435    0.6355   14.2680 N   0  0  0  0  0  0  0  0  0  0  0  0
   14.9747   -0.7436   14.3267 C   0  0  0  0  0  0  0  0  0  0  0  0
   14.1273   -1.7059   15.1424 C   0  0  0  0  0  0  0  0  0  0  0  0
   12.8039   -1.9920   14.7752 C   0  0  0  0  0  0  0  0  0  0  0  0
   12.0643   -2.9550   15.4631 C   0  0  0  0  0  0  0  0  0  0  0  0
   12.6433   -3.6560   16.5197 C   0  0  0  0  0  0  0  0  0  0  0  0
   13.9498   -3.3799   16.9101 C   0  0  0  0  0  0  0  0  0  0  0  0
   14.6854   -2.4097   16.2259 C   0  0  0  0  0  0  0  0  0  0  0  0
   13.7859    0.9510   12.9746 C   0  0  2  0  0  0  0  0  0  0  0  0
   14.3526    1.9754   11.9780 C   0  0  0  0  0  0  0  0  0  0  0  0
   13.2331    2.2459   10.9770 C   0  0  0  0  0  0  0  0  0  0  0  0
   12.0219    2.0678   11.8463 C   0  0  0  0  0  0  0  0  0  0  0  0
   10.8804    2.4051   11.5538 O   0  0  0  0  0  0  0  0  0  0  0  0
   12.3507    1.4384   13.1560 C   0  0  0  0  0  0  0  0  0  0  0  0
  1  2  1  0
  2  3  1  0
  2  4  1  0
  4  5  1  0
  2  6  1  0
  6  7  1  0
  7  8  1  0
  8  9  2  0
  9 10  1  0
 10 11  2  0
 11 12  1  0
 12 13  2  0
 14  6  1  1
 14 15  1  0
 15 16  1  0
 16 17  1  0
 17 18  2  0
 17 19  1  0
 13  8  1  0
 19 14  1  0
M  END
>  <smiles>  (101) 
C93127-P76

>  <fragmenstein_error>  (101) 


>  <ref_pdb>  (101) 
122

>  <HIPPO Compound ID>  (101) 
55308

>  <fragmenstein_runtime>  (101) 
1.573003

>  <Energy>  (101) 
78.712352

>  <fragmenstein_outcome>  (101) 
acceptable

>  <tags>  (101) 
{'fragmenstein_placed', 'openbind_d68ev3c_c1_knitwork_impure'}

>  <HIPPO Pose ID>  (101) 
60754

>  <inchikey>  (101) 
CLFNSDAWADFRPN-UHFFFAOYSA-N

>  <alias>  (101) 
CC(C)(CO)N(Cc1ccccc1)[C@@H]1CCC(=O)C1

>  <scratch_subdir>  (101) 
/opt/xchem-fragalysis-2/maxwin/BulkDock/SCRATCH/511025/C93127-P76

>  <fragmenstein_mode>  (101) 
expansion

$$$$
CC(C)(CO)NC[C@@H]1CCC(=O)N1
     RDKit          3D

 13 13  0  0  0  0  0  0  0  0999 V2000
   16.0963    1.9574   16.4137 C   0  0  0  0  0  0  0  0  0  0  0  0
   15.0887    1.9168   15.2532 C   0  0  0  0  0  0  0  0  0  0  0  0
   14.0600    3.0477   15.4606 C   0  0  0  0  0  0  0  0  0  0  0  0
   15.8352    2.1723   13.9122 C   0  0  0  0  0  0  0  0  0  0  0  0
   14.9452    2.2056   12.7986 O   0  0  0  0  0  0  0  0  0  0  0  0
   14.3448    0.6370   15.3212 N   0  0  0  0  0  0  0  0  0  0  0  0
   15.0399   -0.5323   14.7846 C   0  0  0  0  0  0  0  0  0  0  0  0
   14.3399   -1.8819   15.0126 C   0  0  2  0  0  0  0  0  0  0  0  0
   12.8777   -1.9703   14.5837 C   0  0  0  0  0  0  0  0  0  0  0  0
   12.2182   -2.9127   15.5882 C   0  0  0  0  0  0  0  0  0  0  0  0
   13.3120   -3.2458   16.5694 C   0  0  0  0  0  0  0  0  0  0  0  0
   13.3109   -4.1221   17.4146 O   0  0  0  0  0  0  0  0  0  0  0  0
   14.3590   -2.3736   16.3617 N   0  0  0  0  0  0  0  0  0  0  0  0
  1  2  1  0
  2  3  1  0
  2  4  1  0
  4  5  1  0
  2  6  1  0
  6  7  1  0
  8  7  1  1
  8  9  1  0
  9 10  1  0
 10 11  1  0
 11 12  2  0
 11 13  1  0
 13  8  1  0
M  END
>  <smiles>  (102) 
C58356-P76

>  <fragmenstein_error>  (102) 


>  <ref_pdb>  (102) 
122

>  <HIPPO Compound ID>  (102) 
28511

>  <fragmenstein_runtime>  (102) 
0.689222

>  <Energy>  (102) 
31.1873

>  <fragmenstein_outcome>  (102) 
acceptable

>  <tags>  (102) 
{'fragmenstein_placed', 'openbind_d68ev3c_c1_knitwork_impure'}

>  <HIPPO Pose ID>  (102) 
60761

>  <inchikey>  (102) 
CRGFPNRSOTUXCK-UHFFFAOYSA-N

>  <alias>  (102) 
CC(C)(CO)NC[C@@H]1CCC(=O)N1

>  <scratch_subdir>  (102) 
/opt/xchem-fragalysis-2/maxwin/BulkDock/SCRATCH/511025/C58356-P76

>  <fragmenstein_mode>  (102) 
expansion

$$$$
CC(C)(CO[C@H]1CCNC1=O)NCc1ccccc1
     RDKit          3D

 19 20  0  0  0  0  0  0  0  0999 V2000
   16.1225    1.6724   16.3986 C   0  0  0  0  0  0  0  0  0  0  0  0
   15.1580    1.7900   15.1989 C   0  0  0  0  0  0  0  0  0  0  0  0
   14.2577    3.0201   15.4443 C   0  0  0  0  0  0  0  0  0  0  0  0
   15.9925    1.9773   13.8921 C   0  0  0  0  0  0  0  0  0  0  0  0
   15.3860    2.8341   12.9299 O   0  0  0  0  0  0  0  0  0  0  0  0
   14.4989    2.2258   12.0212 C   0  0  1  0  0  0  0  0  0  0  0  0
   13.8787    3.3642   11.1966 C   0  0  0  0  0  0  0  0  0  0  0  0
   13.5674    2.7460    9.8544 C   0  0  0  0  0  0  0  0  0  0  0  0
   14.5687    1.7392    9.7027 N   0  0  0  0  0  0  0  0  0  0  0  0
   15.0821    1.3257   10.9174 C   0  0  0  0  0  0  0  0  0  0  0  0
   15.8406    0.3805   11.0600 O   0  0  0  0  0  0  0  0  0  0  0  0
   14.2743    0.6146   15.2343 N   0  0  0  0  0  0  0  0  0  0  0  0
   14.8323   -0.6597   14.8006 C   0  0  0  0  0  0  0  0  0  0  0  0
   14.0119   -1.7915   15.3703 C   0  0  0  0  0  0  0  0  0  0  0  0
   12.7291   -2.0570   14.8674 C   0  0  0  0  0  0  0  0  0  0  0  0
   11.9553   -3.0686   15.4271 C   0  0  0  0  0  0  0  0  0  0  0  0
   12.4635   -3.8314   16.4792 C   0  0  0  0  0  0  0  0  0  0  0  0
   13.7313   -3.5767   16.9933 C   0  0  0  0  0  0  0  0  0  0  0  0
   14.5009   -2.5554   16.4435 C   0  0  0  0  0  0  0  0  0  0  0  0
  1  2  1  0
  2  3  1  0
  2  4  1  0
  4  5  1  0
  6  5  1  1
  6  7  1  0
  7  8  1  0
  8  9  1  0
  9 10  1  0
 10 11  2  0
  2 12  1  0
 12 13  1  0
 13 14  1  0
 14 15  2  0
 15 16  1  0
 16 17  2  0
 17 18  1  0
 18 19  2  0
 10  6  1  0
 19 14  1  0
M  END
>  <smiles>  (103) 
C58360-P76

>  <fragmenstein_error>  (103) 


>  <ref_pdb>  (103) 
122

>  <HIPPO Compound ID>  (103) 
55202

>  <fragmenstein_runtime>  (103) 
1.558746

>  <Energy>  (103) 
61.750704

>  <fragmenstein_outcome>  (103) 
acceptable

>  <tags>  (103) 
{'fragmenstein_placed', 'openbind_d68ev3c_c1_knitwork_impure'}

>  <HIPPO Pose ID>  (103) 
60764

>  <inchikey>  (103) 
XTCCIJDBZXWBCY-UHFFFAOYSA-N

>  <alias>  (103) 
CC(C)(CO[C@H]1CCNC1=O)NCc1ccccc1

>  <scratch_subdir>  (103) 
/opt/xchem-fragalysis-2/maxwin/BulkDock/SCRATCH/511025/C58360-P76

>  <fragmenstein_mode>  (103) 
expansion

$$$$
CC(C)(CO)N(Cc1ccccc1)[C@H]1CCCNC1=O
     RDKit          3D

 20 21  0  0  0  0  0  0  0  0999 V2000
   15.7389    1.0955   16.4221 C   0  0  0  0  0  0  0  0  0  0  0  0
   15.1622    1.6610   15.0898 C   0  0  0  0  0  0  0  0  0  0  0  0
   14.3035    2.8734   15.5422 C   0  0  0  0  0  0  0  0  0  0  0  0
   16.3790    2.1706   14.2655 C   0  0  0  0  0  0  0  0  0  0  0  0
   15.9987    2.9637   13.1420 O   0  0  0  0  0  0  0  0  0  0  0  0
   14.3300    0.6350   14.3772 N   0  0  0  0  0  0  0  0  0  0  0  0
   14.8575   -0.7521   14.3961 C   0  0  0  0  0  0  0  0  0  0  0  0
   14.0630   -1.7169   15.2567 C   0  0  0  0  0  0  0  0  0  0  0  0
   12.7353   -2.0296   14.9218 C   0  0  0  0  0  0  0  0  0  0  0  0
   12.0504   -3.0328   15.6032 C   0  0  0  0  0  0  0  0  0  0  0  0
   12.6825   -3.7328   16.6293 C   0  0  0  0  0  0  0  0  0  0  0  0
   13.9888   -3.4203   16.9941 C   0  0  0  0  0  0  0  0  0  0  0  0
   14.6760   -2.4177   16.3088 C   0  0  0  0  0  0  0  0  0  0  0  0
   13.7754    0.9617   13.0135 C   0  0  1  0  0  0  0  0  0  0  0  0
   12.9308    2.2428   12.8913 C   0  0  0  0  0  0  0  0  0  0  0  0
   12.3348    2.3699   11.4957 C   0  0  0  0  0  0  0  0  0  0  0  0
   13.4675    2.4601   10.4902 C   0  0  0  0  0  0  0  0  0  0  0  0
   14.4096    1.3753   10.6245 N   0  0  0  0  0  0  0  0  0  0  0  0
   14.8020    0.8620   11.8397 C   0  0  0  0  0  0  0  0  0  0  0  0
   15.8827    0.2720   11.8841 O   0  0  0  0  0  0  0  0  0  0  0  0
  1  2  1  0
  2  3  1  0
  2  4  1  0
  4  5  1  0
  2  6  1  0
  6  7  1  0
  7  8  1  0
  8  9  2  0
  9 10  1  0
 10 11  2  0
 11 12  1  0
 12 13  2  0
 14  6  1  1
 14 15  1  0
 15 16  1  0
 16 17  1  0
 17 18  1  0
 18 19  1  0
 19 20  2  0
 13  8  1  0
 19 14  1  0
M  END
>  <smiles>  (104) 
C58361-P76

>  <fragmenstein_error>  (104) 


>  <ref_pdb>  (104) 
122

>  <HIPPO Compound ID>  (104) 
46835

>  <fragmenstein_runtime>  (104) 
2.041111

>  <Energy>  (104) 
87.417839

>  <fragmenstein_outcome>  (104) 
acceptable

>  <tags>  (104) 
{'fragmenstein_placed', 'openbind_d68ev3c_c1_knitwork_impure'}

>  <HIPPO Pose ID>  (104) 
60765

>  <inchikey>  (104) 
REILJIISVWWDTA-UHFFFAOYSA-N

>  <alias>  (104) 
CC(C)(CO)N(Cc1ccccc1)[C@H]1CCCNC1=O

>  <scratch_subdir>  (104) 
/opt/xchem-fragalysis-2/maxwin/BulkDock/SCRATCH/511025/C58361-P76

>  <fragmenstein_mode>  (104) 
expansion

$$$$
CC(C)(CO[C@H]1CCCNC1=O)NCc1ccccc1
     RDKit          3D

 20 21  0  0  0  0  0  0  0  0999 V2000
   16.2012    1.8597   16.3401 C   0  0  0  0  0  0  0  0  0  0  0  0
   15.1612    1.8430   15.2078 C   0  0  0  0  0  0  0  0  0  0  0  0
   14.2111    3.0447   15.4074 C   0  0  0  0  0  0  0  0  0  0  0  0
   15.8788    1.9920   13.8378 C   0  0  0  0  0  0  0  0  0  0  0  0
   14.9134    2.0897   12.7866 O   0  0  0  0  0  0  0  0  0  0  0  0
   15.4960    2.0793   11.4847 C   0  0  1  0  0  0  0  0  0  0  0  0
   14.3417    1.9603   10.4889 C   0  0  0  0  0  0  0  0  0  0  0  0
   13.5649    3.2709   10.4056 C   0  0  0  0  0  0  0  0  0  0  0  0
   14.4942    4.3785    9.9411 C   0  0  0  0  0  0  0  0  0  0  0  0
   15.7225    4.4364   10.6990 N   0  0  0  0  0  0  0  0  0  0  0  0
   16.3577    3.3234   11.1871 C   0  0  0  0  0  0  0  0  0  0  0  0
   17.5577    3.3735   11.4555 O   0  0  0  0  0  0  0  0  0  0  0  0
   14.3258    0.6358   15.3458 N   0  0  0  0  0  0  0  0  0  0  0  0
   14.9219   -0.6298   14.9330 C   0  0  0  0  0  0  0  0  0  0  0  0
   14.0810   -1.7767   15.4439 C   0  0  0  0  0  0  0  0  0  0  0  0
   12.8110   -2.0217   14.8973 C   0  0  0  0  0  0  0  0  0  0  0  0
   12.0081   -3.0336   15.4158 C   0  0  0  0  0  0  0  0  0  0  0  0
   12.4765   -3.8212   16.4677 C   0  0  0  0  0  0  0  0  0  0  0  0
   13.7336   -3.5922   17.0199 C   0  0  0  0  0  0  0  0  0  0  0  0
   14.5310   -2.5695   16.5128 C   0  0  0  0  0  0  0  0  0  0  0  0
  1  2  1  0
  2  3  1  0
  2  4  1  0
  4  5  1  0
  6  5  1  1
  6  7  1  0
  7  8  1  0
  8  9  1  0
  9 10  1  0
 10 11  1  0
 11 12  2  0
  2 13  1  0
 13 14  1  0
 14 15  1  0
 15 16  2  0
 16 17  1  0
 17 18  2  0
 18 19  1  0
 19 20  2  0
 11  6  1  0
 20 15  1  0
M  END
>  <smiles>  (105) 
C58363-P76

>  <fragmenstein_error>  (105) 


>  <ref_pdb>  (105) 
122

>  <HIPPO Compound ID>  (105) 
49675

>  <fragmenstein_runtime>  (105) 
2.030668

>  <Energy>  (105) 
60.121616

>  <fragmenstein_outcome>  (105) 
acceptable

>  <tags>  (105) 
{'fragmenstein_placed', 'openbind_d68ev3c_c1_knitwork_impure'}

>  <HIPPO Pose ID>  (105) 
60767

>  <inchikey>  (105) 
CZHDEAACYDIYOD-UHFFFAOYSA-N

>  <alias>  (105) 
CC(C)(CO[C@H]1CCCNC1=O)NCc1ccccc1

>  <scratch_subdir>  (105) 
/opt/xchem-fragalysis-2/maxwin/BulkDock/SCRATCH/511025/C58363-P76

>  <fragmenstein_mode>  (105) 
expansion

$$$$
CC(C)(CO[C@@H]1CCCCNC1=O)NCc1ccccc1
     RDKit          3D

 21 22  0  0  0  0  0  0  0  0999 V2000
   16.1527    1.7865   16.3549 C   0  0  0  0  0  0  0  0  0  0  0  0
   15.1553    1.8179   15.1760 C   0  0  0  0  0  0  0  0  0  0  0  0
   14.2077    3.0130   15.4072 C   0  0  0  0  0  0  0  0  0  0  0  0
   15.9541    2.0212   13.8501 C   0  0  0  0  0  0  0  0  0  0  0  0
   15.2330    2.6464   12.7843 O   0  0  0  0  0  0  0  0  0  0  0  0
   14.5726    1.7567   11.8953 C   0  0  2  0  0  0  0  0  0  0  0  0
   14.7527    2.2399   10.4501 C   0  0  0  0  0  0  0  0  0  0  0  0
   14.5017    3.7286   10.2107 C   0  0  0  0  0  0  0  0  0  0  0  0
   13.0460    4.1535   10.3750 C   0  0  0  0  0  0  0  0  0  0  0  0
   12.5060    3.9400   11.7808 C   0  0  0  0  0  0  0  0  0  0  0  0
   12.1964    2.5564   12.0518 N   0  0  0  0  0  0  0  0  0  0  0  0
   13.0973    1.5544   12.2457 C   0  0  0  0  0  0  0  0  0  0  0  0
   12.7047    0.4908   12.7242 O   0  0  0  0  0  0  0  0  0  0  0  0
   14.3280    0.6056   15.2608 N   0  0  0  0  0  0  0  0  0  0  0  0
   14.9475   -0.6731   14.9338 C   0  0  0  0  0  0  0  0  0  0  0  0
   14.1177   -1.8089   15.4878 C   0  0  0  0  0  0  0  0  0  0  0  0
   12.8424   -2.0774   14.9655 C   0  0  0  0  0  0  0  0  0  0  0  0
   12.0577   -3.0904   15.5072 C   0  0  0  0  0  0  0  0  0  0  0  0
   12.5507   -3.8605   16.5590 C   0  0  0  0  0  0  0  0  0  0  0  0
   13.8122   -3.6087   17.0907 C   0  0  0  0  0  0  0  0  0  0  0  0
   14.5906   -2.5827   16.5600 C   0  0  0  0  0  0  0  0  0  0  0  0
  1  2  1  0
  2  3  1  0
  2  4  1  0
  4  5  1  0
  6  5  1  1
  6  7  1  0
  7  8  1  0
  8  9  1  0
  9 10  1  0
 10 11  1  0
 11 12  1  0
 12 13  2  0
  2 14  1  0
 14 15  1  0
 15 16  1  0
 16 17  2  0
 17 18  1  0
 18 19  2  0
 19 20  1  0
 20 21  2  0
 12  6  1  0
 21 16  1  0
M  END
>  <smiles>  (106) 
C58366-P76

>  <fragmenstein_error>  (106) 


>  <ref_pdb>  (106) 
122

>  <HIPPO Compound ID>  (106) 
35601

>  <fragmenstein_runtime>  (106) 
1.815059

>  <Energy>  (106) 
66.470497

>  <fragmenstein_outcome>  (106) 
acceptable

>  <tags>  (106) 
{'fragmenstein_placed', 'openbind_d68ev3c_c1_knitwork_impure'}

>  <HIPPO Pose ID>  (106) 
60770

>  <inchikey>  (106) 
ZYKZERAGYHXJIN-UHFFFAOYSA-N

>  <alias>  (106) 
CC(C)(CO[C@@H]1CCCCNC1=O)NCc1ccccc1

>  <scratch_subdir>  (106) 
/opt/xchem-fragalysis-2/maxwin/BulkDock/SCRATCH/511025/C58366-P76

>  <fragmenstein_mode>  (106) 
expansion

$$$$
CC(C)(COc1ccc(C(F)(F)F)cn1)NC[C@@H]1CCC(=O)N1
     RDKit          3D

 23 24  0  0  0  0  0  0  0  0999 V2000
   16.2843    2.0077   16.3757 C   0  0  0  0  0  0  0  0  0  0  0  0
   15.2503    1.8609   15.2448 C   0  0  0  0  0  0  0  0  0  0  0  0
   14.1533    2.9271   15.4392 C   0  0  0  0  0  0  0  0  0  0  0  0
   15.9585    2.1210   13.8796 C   0  0  0  0  0  0  0  0  0  0  0  0
   15.0044    2.1182   12.8138 O   0  0  0  0  0  0  0  0  0  0  0  0
   15.5599    2.3363   11.5726 C   0  0  0  0  0  0  0  0  0  0  0  0
   14.6725    2.4159   10.5125 C   0  0  0  0  0  0  0  0  0  0  0  0
   15.1836    2.6256    9.2346 C   0  0  0  0  0  0  0  0  0  0  0  0
   16.5651    2.7435    9.0552 C   0  0  0  0  0  0  0  0  0  0  0  0
   17.1846    2.9906    7.7153 C   0  0  0  0  0  0  0  0  0  0  0  0
   18.3533    2.3140    7.5388 F   0  0  0  0  0  0  0  0  0  0  0  0
   16.3836    2.6240    6.6764 F   0  0  0  0  0  0  0  0  0  0  0  0
   17.4795    4.3038    7.5146 F   0  0  0  0  0  0  0  0  0  0  0  0
   17.3681    2.6574   10.1852 C   0  0  0  0  0  0  0  0  0  0  0  0
   16.8981    2.4536   11.4377 N   0  0  0  0  0  0  0  0  0  0  0  0
   14.5785    0.5523   15.3997 N   0  0  0  0  0  0  0  0  0  0  0  0
   15.2361   -0.5896   14.7768 C   0  0  0  0  0  0  0  0  0  0  0  0
   14.4860   -1.9097   15.0074 C   0  0  2  0  0  0  0  0  0  0  0  0
   13.0132   -1.9062   14.6028 C   0  0  0  0  0  0  0  0  0  0  0  0
   12.3268   -2.8625   15.5755 C   0  0  0  0  0  0  0  0  0  0  0  0
   13.4001   -3.2139   16.5738 C   0  0  0  0  0  0  0  0  0  0  0  0
   13.3622   -4.0794   17.4299 O   0  0  0  0  0  0  0  0  0  0  0  0
   14.4844   -2.3846   16.3661 N   0  0  0  0  0  0  0  0  0  0  0  0
  1  2  1  0
  2  3  1  0
  2  4  1  0
  4  5  1  0
  5  6  1  0
  6  7  2  0
  7  8  1  0
  8  9  2  0
  9 10  1  0
 10 11  1  0
 10 12  1  0
 10 13  1  0
  9 14  1  0
 14 15  2  0
  2 16  1  0
 16 17  1  0
 18 17  1  1
 18 19  1  0
 19 20  1  0
 20 21  1  0
 21 22  2  0
 21 23  1  0
 15  6  1  0
 23 18  1  0
M  END
>  <smiles>  (107) 
C58367-P76

>  <fragmenstein_error>  (107) 


>  <ref_pdb>  (107) 
122

>  <HIPPO Compound ID>  (107) 
51482

>  <fragmenstein_runtime>  (107) 
1.19036

>  <Energy>  (107) 
35.429581

>  <fragmenstein_outcome>  (107) 
acceptable

>  <tags>  (107) 
{'fragmenstein_placed', 'openbind_d68ev3c_c1_knitwork_impure'}

>  <HIPPO Pose ID>  (107) 
60771

>  <inchikey>  (107) 
RZUWUCVWLQVQDU-UHFFFAOYSA-N

>  <alias>  (107) 
CC(C)(COc1ccc(C(F)(F)F)cn1)NC[C@@H]1CCC(=O)N1

>  <scratch_subdir>  (107) 
/opt/xchem-fragalysis-2/maxwin/BulkDock/SCRATCH/511025/C58367-P76

>  <fragmenstein_mode>  (107) 
expansion

$$$$
COc1ccccc1C[C@@](C)(CO)NC[C@@H]1CCC(=O)N1
     RDKit          3D

 21 22  0  0  0  0  0  0  0  0999 V2000
   18.6218    1.6288   19.8031 C   0  0  0  0  0  0  0  0  0  0  0  0
   17.8746    1.7858   18.6037 O   0  0  0  0  0  0  0  0  0  0  0  0
   17.8955    3.0183   17.9956 C   0  0  0  0  0  0  0  0  0  0  0  0
   18.6471    4.1053   18.4581 C   0  0  0  0  0  0  0  0  0  0  0  0
   18.6231    5.3191   17.7754 C   0  0  0  0  0  0  0  0  0  0  0  0
   17.8525    5.4499   16.6279 C   0  0  0  0  0  0  0  0  0  0  0  0
   17.0996    4.3703   16.1583 C   0  0  0  0  0  0  0  0  0  0  0  0
   17.0964    3.1405   16.8293 C   0  0  0  0  0  0  0  0  0  0  0  0
   16.3134    1.9152   16.3749 C   0  0  0  0  0  0  0  0  0  0  0  0
   15.2642    1.9065   15.2195 C   0  0  1  0  0  0  0  0  0  0  0  0
   14.1470    2.9455   15.4636 C   0  0  0  0  0  0  0  0  0  0  0  0
   15.9096    2.1415   13.8265 C   0  0  0  0  0  0  0  0  0  0  0  0
   14.9342    2.0331   12.7867 O   0  0  0  0  0  0  0  0  0  0  0  0
   14.5290    0.5991   15.2416 N   0  0  0  0  0  0  0  0  0  0  0  0
   15.2588   -0.5842   14.7859 C   0  0  0  0  0  0  0  0  0  0  0  0
   14.4851   -1.8948   15.0118 C   0  0  2  0  0  0  0  0  0  0  0  0
   13.0237   -1.8983   14.5650 C   0  0  0  0  0  0  0  0  0  0  0  0
   12.3123   -2.8464   15.5297 C   0  0  0  0  0  0  0  0  0  0  0  0
   13.3623   -3.1896   16.5554 C   0  0  0  0  0  0  0  0  0  0  0  0
   13.3129   -4.0563   17.4090 O   0  0  0  0  0  0  0  0  0  0  0  0
   14.4413   -2.3455   16.3774 N   0  0  0  0  0  0  0  0  0  0  0  0
  1  2  1  0
  2  3  1  0
  3  4  2  0
  4  5  1  0
  5  6  2  0
  6  7  1  0
  7  8  2  0
  8  9  1  0
  9 10  1  0
 10 11  1  1
 10 12  1  0
 12 13  1  0
 10 14  1  0
 14 15  1  0
 16 15  1  1
 16 17  1  0
 17 18  1  0
 18 19  1  0
 19 20  2  0
 19 21  1  0
  8  3  1  0
 21 16  1  0
M  END
>  <smiles>  (108) 
C58368-P76

>  <fragmenstein_error>  (108) 


>  <ref_pdb>  (108) 
122

>  <HIPPO Compound ID>  (108) 
32763

>  <fragmenstein_runtime>  (108) 
1.219492

>  <Energy>  (108) 
67.562493

>  <fragmenstein_outcome>  (108) 
acceptable

>  <tags>  (108) 
{'fragmenstein_placed', 'openbind_d68ev3c_c1_knitwork_impure'}

>  <HIPPO Pose ID>  (108) 
60772

>  <inchikey>  (108) 
HLOXHEMSADMCEB-UHFFFAOYSA-N

>  <alias>  (108) 
COc1ccccc1C[C@@](C)(CO)NC[C@@H]1CCC(=O)N1

>  <scratch_subdir>  (108) 
/opt/xchem-fragalysis-2/maxwin/BulkDock/SCRATCH/511025/C58368-P76

>  <fragmenstein_mode>  (108) 
expansion

$$$$
C[C@](CO)(Cc1ccccc1F)NC[C@@H]1CCCC(=O)N1
     RDKit          3D

 21 22  0  0  0  0  0  0  0  0999 V2000
   16.0750    2.0508   16.4662 C   0  0  0  0  0  0  0  0  0  0  0  0
   15.2522    1.9133   15.1583 C   0  0  2  0  0  0  0  0  0  0  0  0
   16.2536    2.1121   13.9747 C   0  0  0  0  0  0  0  0  0  0  0  0
   15.7332    1.8349   12.6806 O   0  0  0  0  0  0  0  0  0  0  0  0
   14.1621    3.0467   15.1904 C   0  0  0  0  0  0  0  0  0  0  0  0
   13.4333    3.4069   13.9140 C   0  0  0  0  0  0  0  0  0  0  0  0
   12.7180    2.4539   13.1758 C   0  0  0  0  0  0  0  0  0  0  0  0
   12.0900    2.7982   11.9754 C   0  0  0  0  0  0  0  0  0  0  0  0
   12.1479    4.1088   11.5056 C   0  0  0  0  0  0  0  0  0  0  0  0
   12.8289    5.0749   12.2419 C   0  0  0  0  0  0  0  0  0  0  0  0
   13.4602    4.7206   13.4322 C   0  0  0  0  0  0  0  0  0  0  0  0
   14.1277    5.6693   14.1051 F   0  0  0  0  0  0  0  0  0  0  0  0
   14.5660    0.6073   15.2503 N   0  0  0  0  0  0  0  0  0  0  0  0
   15.2440   -0.5583   14.6904 C   0  0  0  0  0  0  0  0  0  0  0  0
   14.4392   -1.8701   14.9048 C   0  0  2  0  0  0  0  0  0  0  0  0
   12.9602   -1.6929   14.5421 C   0  0  0  0  0  0  0  0  0  0  0  0
   12.0733   -2.8597   14.9278 C   0  0  0  0  0  0  0  0  0  0  0  0
   12.4251   -3.4656   16.2753 C   0  0  0  0  0  0  0  0  0  0  0  0
   13.8800   -3.5005   16.6640 C   0  0  0  0  0  0  0  0  0  0  0  0
   14.3460   -4.3359   17.4353 O   0  0  0  0  0  0  0  0  0  0  0  0
   14.6268   -2.4281   16.2420 N   0  0  0  0  0  0  0  0  0  0  0  0
  2  1  1  1
  2  3  1  0
  3  4  1  0
  2  5  1  0
  5  6  1  0
  6  7  2  0
  7  8  1  0
  8  9  2  0
  9 10  1  0
 10 11  2  0
 11 12  1  0
  2 13  1  0
 13 14  1  0
 15 14  1  1
 15 16  1  0
 16 17  1  0
 17 18  1  0
 18 19  1  0
 19 20  2  0
 19 21  1  0
 11  6  1  0
 21 15  1  0
M  END
>  <smiles>  (109) 
C58369-P76

>  <fragmenstein_error>  (109) 


>  <ref_pdb>  (109) 
122

>  <HIPPO Compound ID>  (109) 
63365

>  <fragmenstein_runtime>  (109) 
1.109335

>  <Energy>  (109) 
65.97051

>  <fragmenstein_outcome>  (109) 
acceptable

>  <tags>  (109) 
{'fragmenstein_placed', 'openbind_d68ev3c_c1_knitwork_impure'}

>  <HIPPO Pose ID>  (109) 
60773

>  <inchikey>  (109) 
CEDDENXUUINPDU-UHFFFAOYSA-N

>  <alias>  (109) 
C[C@](CO)(Cc1ccccc1F)NC[C@@H]1CCCC(=O)N1

>  <scratch_subdir>  (109) 
/opt/xchem-fragalysis-2/maxwin/BulkDock/SCRATCH/511025/C58369-P76

>  <fragmenstein_mode>  (109) 
expansion

$$$$
